* NGSPICE file created from tiny_user_project.ext - technology: gf180mcuC

* Black-box entry subcircuit for gf180mcu_fd_sc_mcu7t5v0__fill_1 abstract view
.subckt gf180mcu_fd_sc_mcu7t5v0__fill_1 VDD VSS
.ends

* Black-box entry subcircuit for gf180mcu_fd_sc_mcu7t5v0__filltie abstract view
.subckt gf180mcu_fd_sc_mcu7t5v0__filltie VDD VSS
.ends

* Black-box entry subcircuit for gf180mcu_fd_sc_mcu7t5v0__fill_2 abstract view
.subckt gf180mcu_fd_sc_mcu7t5v0__fill_2 VDD VSS
.ends

* Black-box entry subcircuit for gf180mcu_fd_sc_mcu7t5v0__fillcap_64 abstract view
.subckt gf180mcu_fd_sc_mcu7t5v0__fillcap_64 VDD VSS
.ends

* Black-box entry subcircuit for gf180mcu_fd_sc_mcu7t5v0__fillcap_4 abstract view
.subckt gf180mcu_fd_sc_mcu7t5v0__fillcap_4 VDD VSS
.ends

* Black-box entry subcircuit for gf180mcu_fd_sc_mcu7t5v0__antenna abstract view
.subckt gf180mcu_fd_sc_mcu7t5v0__antenna I VDD VSS
.ends

* Black-box entry subcircuit for gf180mcu_fd_sc_mcu7t5v0__fillcap_32 abstract view
.subckt gf180mcu_fd_sc_mcu7t5v0__fillcap_32 VDD VSS
.ends

* Black-box entry subcircuit for gf180mcu_fd_sc_mcu7t5v0__dffnq_1 abstract view
.subckt gf180mcu_fd_sc_mcu7t5v0__dffnq_1 D CLKN Q VDD VSS
.ends

* Black-box entry subcircuit for gf180mcu_fd_sc_mcu7t5v0__clkinv_1 abstract view
.subckt gf180mcu_fd_sc_mcu7t5v0__clkinv_1 I ZN VDD VSS
.ends

* Black-box entry subcircuit for gf180mcu_fd_sc_mcu7t5v0__fillcap_8 abstract view
.subckt gf180mcu_fd_sc_mcu7t5v0__fillcap_8 VDD VSS
.ends

* Black-box entry subcircuit for gf180mcu_fd_sc_mcu7t5v0__fillcap_16 abstract view
.subckt gf180mcu_fd_sc_mcu7t5v0__fillcap_16 VDD VSS
.ends

* Black-box entry subcircuit for gf180mcu_fd_sc_mcu7t5v0__oai22_1 abstract view
.subckt gf180mcu_fd_sc_mcu7t5v0__oai22_1 A1 A2 B1 B2 ZN VDD VSS
.ends

* Black-box entry subcircuit for gf180mcu_fd_sc_mcu7t5v0__clkbuf_4 abstract view
.subckt gf180mcu_fd_sc_mcu7t5v0__clkbuf_4 I Z VDD VSS
.ends

* Black-box entry subcircuit for gf180mcu_fd_sc_mcu7t5v0__aoi21_1 abstract view
.subckt gf180mcu_fd_sc_mcu7t5v0__aoi21_1 A1 A2 B ZN VDD VSS
.ends

* Black-box entry subcircuit for gf180mcu_fd_sc_mcu7t5v0__oai21_1 abstract view
.subckt gf180mcu_fd_sc_mcu7t5v0__oai21_1 A1 A2 B ZN VDD VSS
.ends

* Black-box entry subcircuit for gf180mcu_fd_sc_mcu7t5v0__endcap abstract view
.subckt gf180mcu_fd_sc_mcu7t5v0__endcap VDD VSS
.ends

* Black-box entry subcircuit for gf180mcu_fd_sc_mcu7t5v0__clkbuf_1 abstract view
.subckt gf180mcu_fd_sc_mcu7t5v0__clkbuf_1 I Z VDD VSS
.ends

* Black-box entry subcircuit for gf180mcu_fd_sc_mcu7t5v0__dffq_1 abstract view
.subckt gf180mcu_fd_sc_mcu7t5v0__dffq_1 D CLK Q VDD VSS
.ends

* Black-box entry subcircuit for gf180mcu_fd_sc_mcu7t5v0__nand3_1 abstract view
.subckt gf180mcu_fd_sc_mcu7t5v0__nand3_1 A1 A2 A3 ZN VDD VSS
.ends

* Black-box entry subcircuit for gf180mcu_fd_sc_mcu7t5v0__nor2_1 abstract view
.subckt gf180mcu_fd_sc_mcu7t5v0__nor2_1 A1 A2 ZN VDD VSS
.ends

* Black-box entry subcircuit for gf180mcu_fd_sc_mcu7t5v0__nand4_1 abstract view
.subckt gf180mcu_fd_sc_mcu7t5v0__nand4_1 A1 A2 A3 A4 ZN VDD VSS
.ends

* Black-box entry subcircuit for gf180mcu_fd_sc_mcu7t5v0__buf_2 abstract view
.subckt gf180mcu_fd_sc_mcu7t5v0__buf_2 I Z VDD VSS
.ends

* Black-box entry subcircuit for gf180mcu_fd_sc_mcu7t5v0__nand2_1 abstract view
.subckt gf180mcu_fd_sc_mcu7t5v0__nand2_1 A1 A2 ZN VDD VSS
.ends

* Black-box entry subcircuit for gf180mcu_fd_sc_mcu7t5v0__oai211_1 abstract view
.subckt gf180mcu_fd_sc_mcu7t5v0__oai211_1 A1 A2 B C ZN VDD VSS
.ends

* Black-box entry subcircuit for gf180mcu_fd_sc_mcu7t5v0__xor2_1 abstract view
.subckt gf180mcu_fd_sc_mcu7t5v0__xor2_1 A1 A2 Z VDD VSS
.ends

* Black-box entry subcircuit for gf180mcu_fd_sc_mcu7t5v0__tiel abstract view
.subckt gf180mcu_fd_sc_mcu7t5v0__tiel ZN VDD VSS
.ends

* Black-box entry subcircuit for gf180mcu_fd_sc_mcu7t5v0__nor3_1 abstract view
.subckt gf180mcu_fd_sc_mcu7t5v0__nor3_1 A1 A2 A3 ZN VDD VSS
.ends

* Black-box entry subcircuit for gf180mcu_fd_sc_mcu7t5v0__nor3_2 abstract view
.subckt gf180mcu_fd_sc_mcu7t5v0__nor3_2 A1 A2 A3 ZN VDD VSS
.ends

* Black-box entry subcircuit for gf180mcu_fd_sc_mcu7t5v0__aoi22_1 abstract view
.subckt gf180mcu_fd_sc_mcu7t5v0__aoi22_1 A1 A2 B1 B2 ZN VDD VSS
.ends

.subckt tiny_user_project io_in[0] io_in[10] io_in[11] io_in[12] io_in[13] io_in[14]
+ io_in[15] io_in[16] io_in[17] io_in[18] io_in[19] io_in[1] io_in[20] io_in[21] io_in[22]
+ io_in[23] io_in[24] io_in[25] io_in[26] io_in[27] io_in[28] io_in[29] io_in[2] io_in[30]
+ io_in[31] io_in[32] io_in[33] io_in[34] io_in[35] io_in[36] io_in[37] io_in[3] io_in[4]
+ io_in[5] io_in[6] io_in[7] io_in[8] io_in[9] io_oeb[0] io_oeb[10] io_oeb[11] io_oeb[12]
+ io_oeb[13] io_oeb[14] io_oeb[15] io_oeb[16] io_oeb[17] io_oeb[18] io_oeb[19] io_oeb[1]
+ io_oeb[20] io_oeb[21] io_oeb[22] io_oeb[23] io_oeb[24] io_oeb[25] io_oeb[26] io_oeb[27]
+ io_oeb[28] io_oeb[29] io_oeb[2] io_oeb[30] io_oeb[31] io_oeb[32] io_oeb[33] io_oeb[34]
+ io_oeb[35] io_oeb[36] io_oeb[37] io_oeb[3] io_oeb[4] io_oeb[5] io_oeb[6] io_oeb[7]
+ io_oeb[8] io_oeb[9] io_out[0] io_out[10] io_out[11] io_out[12] io_out[13] io_out[14]
+ io_out[15] io_out[16] io_out[17] io_out[18] io_out[19] io_out[1] io_out[20] io_out[21]
+ io_out[22] io_out[23] io_out[24] io_out[25] io_out[26] io_out[27] io_out[28] io_out[29]
+ io_out[2] io_out[30] io_out[31] io_out[32] io_out[33] io_out[34] io_out[35] io_out[36]
+ io_out[37] io_out[3] io_out[4] io_out[5] io_out[6] io_out[7] io_out[8] io_out[9]
+ vccd1 vssd1
XFILLER_54_247 vccd1 vssd1 gf180mcu_fd_sc_mcu7t5v0__fill_1
XTAP_177 vccd1 vssd1 gf180mcu_fd_sc_mcu7t5v0__filltie
XTAP_188 vccd1 vssd1 gf180mcu_fd_sc_mcu7t5v0__filltie
XTAP_199 vccd1 vssd1 gf180mcu_fd_sc_mcu7t5v0__filltie
XFILLER_27_417 vccd1 vssd1 gf180mcu_fd_sc_mcu7t5v0__fill_2
XFILLER_7_7 vccd1 vssd1 gf180mcu_fd_sc_mcu7t5v0__fillcap_64
XFILLER_53_280 vccd1 vssd1 gf180mcu_fd_sc_mcu7t5v0__fillcap_4
XFILLER_9_137 vccd1 vssd1 gf180mcu_fd_sc_mcu7t5v0__fillcap_4
XFILLER_13_144 vccd1 vssd1 gf180mcu_fd_sc_mcu7t5v0__fillcap_64
XANTENNA__113__B _006_ vccd1 vssd1 gf180mcu_fd_sc_mcu7t5v0__antenna
XFILLER_5_354 vccd1 vssd1 gf180mcu_fd_sc_mcu7t5v0__fill_1
XFILLER_36_247 vccd1 vssd1 gf180mcu_fd_sc_mcu7t5v0__fill_1
XANTENNA__074__I mod.flipflop26.q vccd1 vssd1 gf180mcu_fd_sc_mcu7t5v0__antenna
XFILLER_50_261 vccd1 vssd1 gf180mcu_fd_sc_mcu7t5v0__fillcap_32
XFILLER_50_250 vccd1 vssd1 gf180mcu_fd_sc_mcu7t5v0__fill_1
XFILLER_18_247 vccd1 vssd1 gf180mcu_fd_sc_mcu7t5v0__fill_1
XFILLER_37_73 vccd1 vssd1 gf180mcu_fd_sc_mcu7t5v0__fillcap_64
XFILLER_53_94 vccd1 vssd1 gf180mcu_fd_sc_mcu7t5v0__fill_2
XFILLER_41_283 vccd1 vssd1 gf180mcu_fd_sc_mcu7t5v0__fill_1
XFILLER_49_350 vccd1 vssd1 gf180mcu_fd_sc_mcu7t5v0__fillcap_4
XANTENNA__069__I mod.flipflop2.q vccd1 vssd1 gf180mcu_fd_sc_mcu7t5v0__antenna
XFILLER_32_250 vccd1 vssd1 gf180mcu_fd_sc_mcu7t5v0__fillcap_64
XFILLER_23_283 vccd1 vssd1 gf180mcu_fd_sc_mcu7t5v0__fill_1
X_131_ mod.flipflop18.d net1 net3 vccd1 vssd1 gf180mcu_fd_sc_mcu7t5v0__dffnq_1
X_062_ mod.flipflop10.clk mod.flipflop9.d vccd1 vssd1 gf180mcu_fd_sc_mcu7t5v0__clkinv_1
XFILLER_7_405 vccd1 vssd1 gf180mcu_fd_sc_mcu7t5v0__fillcap_8
XFILLER_48_50 vccd1 vssd1 gf180mcu_fd_sc_mcu7t5v0__fill_2
XFILLER_2_176 vccd1 vssd1 gf180mcu_fd_sc_mcu7t5v0__fill_1
XFILLER_14_250 vccd1 vssd1 gf180mcu_fd_sc_mcu7t5v0__fillcap_64
XFILLER_43_2 vccd1 vssd1 gf180mcu_fd_sc_mcu7t5v0__fill_1
XFILLER_52_389 vccd1 vssd1 gf180mcu_fd_sc_mcu7t5v0__fill_1
XFILLER_4_419 vccd1 vssd1 gf180mcu_fd_sc_mcu7t5v0__fill_1
XFILLER_4_408 vccd1 vssd1 gf180mcu_fd_sc_mcu7t5v0__fillcap_4
XFILLER_18_31 vccd1 vssd1 gf180mcu_fd_sc_mcu7t5v0__fillcap_4
XFILLER_43_389 vccd1 vssd1 gf180mcu_fd_sc_mcu7t5v0__fillcap_16
X_114_ mod.flipflop13.d _010_ _015_ _046_ mod.flipflop18.d vccd1 vssd1 gf180mcu_fd_sc_mcu7t5v0__oai22_1
XFILLER_50_62 vccd1 vssd1 gf180mcu_fd_sc_mcu7t5v0__fill_2
XFILLER_50_40 vccd1 vssd1 gf180mcu_fd_sc_mcu7t5v0__fill_2
XFILLER_7_279 vccd1 vssd1 gf180mcu_fd_sc_mcu7t5v0__fillcap_4
XFILLER_11_286 vccd1 vssd1 gf180mcu_fd_sc_mcu7t5v0__fillcap_64
XANTENNA__121__B _018_ vccd1 vssd1 gf180mcu_fd_sc_mcu7t5v0__antenna
XFILLER_46_172 vccd1 vssd1 gf180mcu_fd_sc_mcu7t5v0__fill_2
XFILLER_34_389 vccd1 vssd1 gf180mcu_fd_sc_mcu7t5v0__fill_1
XANTENNA__080__A1 _030_ vccd1 vssd1 gf180mcu_fd_sc_mcu7t5v0__antenna
XFILLER_25_389 vccd1 vssd1 gf180mcu_fd_sc_mcu7t5v0__fillcap_16
XFILLER_16_389 vccd1 vssd1 gf180mcu_fd_sc_mcu7t5v0__fill_1
XFILLER_28_172 vccd1 vssd1 gf180mcu_fd_sc_mcu7t5v0__fillcap_4
XFILLER_43_153 vccd1 vssd1 gf180mcu_fd_sc_mcu7t5v0__fill_2
XFILLER_43_175 vccd1 vssd1 gf180mcu_fd_sc_mcu7t5v0__fill_2
XFILLER_45_73 vccd1 vssd1 gf180mcu_fd_sc_mcu7t5v0__fillcap_4
XFILLER_45_95 vccd1 vssd1 gf180mcu_fd_sc_mcu7t5v0__fill_2
XFILLER_6_34 vccd1 vssd1 gf180mcu_fd_sc_mcu7t5v0__fill_1
XANTENNA__116__B mod.flipflop14.d vccd1 vssd1 gf180mcu_fd_sc_mcu7t5v0__antenna
XTAP_304 vccd1 vssd1 gf180mcu_fd_sc_mcu7t5v0__filltie
XTAP_315 vccd1 vssd1 gf180mcu_fd_sc_mcu7t5v0__filltie
XTAP_326 vccd1 vssd1 gf180mcu_fd_sc_mcu7t5v0__filltie
XTAP_337 vccd1 vssd1 gf180mcu_fd_sc_mcu7t5v0__filltie
XTAP_348 vccd1 vssd1 gf180mcu_fd_sc_mcu7t5v0__filltie
XTAP_359 vccd1 vssd1 gf180mcu_fd_sc_mcu7t5v0__filltie
XANTENNA__077__I mod.flipflop29.q vccd1 vssd1 gf180mcu_fd_sc_mcu7t5v0__antenna
XANTENNA__117__A2 mod.flipflop5.d vccd1 vssd1 gf180mcu_fd_sc_mcu7t5v0__antenna
XFILLER_30_392 vccd1 vssd1 gf180mcu_fd_sc_mcu7t5v0__fillcap_16
XFILLER_1_208 vccd1 vssd1 gf180mcu_fd_sc_mcu7t5v0__fillcap_4
XFILLER_40_101 vccd1 vssd1 gf180mcu_fd_sc_mcu7t5v0__fillcap_4
XFILLER_40_145 vccd1 vssd1 gf180mcu_fd_sc_mcu7t5v0__fill_2
Xoutput7 net7 io_out[24] vccd1 vssd1 gf180mcu_fd_sc_mcu7t5v0__clkbuf_4
XANTENNA__108__A2 _026_ vccd1 vssd1 gf180mcu_fd_sc_mcu7t5v0__antenna
XFILLER_0_252 vccd1 vssd1 gf180mcu_fd_sc_mcu7t5v0__fillcap_16
XFILLER_8_385 vccd1 vssd1 gf180mcu_fd_sc_mcu7t5v0__fillcap_4
XFILLER_12_392 vccd1 vssd1 gf180mcu_fd_sc_mcu7t5v0__fillcap_16
XTAP_167 vccd1 vssd1 gf180mcu_fd_sc_mcu7t5v0__filltie
XTAP_156 vccd1 vssd1 gf180mcu_fd_sc_mcu7t5v0__filltie
XTAP_145 vccd1 vssd1 gf180mcu_fd_sc_mcu7t5v0__filltie
XTAP_134 vccd1 vssd1 gf180mcu_fd_sc_mcu7t5v0__filltie
XTAP_112 vccd1 vssd1 gf180mcu_fd_sc_mcu7t5v0__filltie
XTAP_123 vccd1 vssd1 gf180mcu_fd_sc_mcu7t5v0__filltie
XTAP_178 vccd1 vssd1 gf180mcu_fd_sc_mcu7t5v0__filltie
XTAP_189 vccd1 vssd1 gf180mcu_fd_sc_mcu7t5v0__filltie
XFILLER_39_212 vccd1 vssd1 gf180mcu_fd_sc_mcu7t5v0__fill_1
XFILLER_52_19 vccd1 vssd1 gf180mcu_fd_sc_mcu7t5v0__fill_1
XFILLER_10_318 vccd1 vssd1 gf180mcu_fd_sc_mcu7t5v0__fill_1
XFILLER_22_101 vccd1 vssd1 gf180mcu_fd_sc_mcu7t5v0__fillcap_4
XFILLER_45_215 vccd1 vssd1 gf180mcu_fd_sc_mcu7t5v0__fillcap_64
XANTENNA__090__I _027_ vccd1 vssd1 gf180mcu_fd_sc_mcu7t5v0__antenna
XFILLER_27_215 vccd1 vssd1 gf180mcu_fd_sc_mcu7t5v0__fillcap_64
XFILLER_50_240 vccd1 vssd1 gf180mcu_fd_sc_mcu7t5v0__fill_2
XFILLER_42_218 vccd1 vssd1 gf180mcu_fd_sc_mcu7t5v0__fillcap_16
XFILLER_6_108 vccd1 vssd1 gf180mcu_fd_sc_mcu7t5v0__fillcap_64
XFILLER_2_314 vccd1 vssd1 gf180mcu_fd_sc_mcu7t5v0__fillcap_4
XFILLER_53_73 vccd1 vssd1 gf180mcu_fd_sc_mcu7t5v0__fill_1
XFILLER_5_141 vccd1 vssd1 gf180mcu_fd_sc_mcu7t5v0__fill_1
X_130_ mod.flipflop19.d net1 net4 vccd1 vssd1 gf180mcu_fd_sc_mcu7t5v0__dffnq_1
XFILLER_11_413 vccd1 vssd1 gf180mcu_fd_sc_mcu7t5v0__fill_2
XFILLER_7_417 vccd1 vssd1 gf180mcu_fd_sc_mcu7t5v0__fill_2
X_061_ mod.flipflop10.q mod.flipflop10.d vccd1 vssd1 gf180mcu_fd_sc_mcu7t5v0__clkinv_1
XFILLER_48_62 vccd1 vssd1 gf180mcu_fd_sc_mcu7t5v0__fill_2
XFILLER_3_2 vccd1 vssd1 gf180mcu_fd_sc_mcu7t5v0__fillcap_64
XFILLER_46_321 vccd1 vssd1 gf180mcu_fd_sc_mcu7t5v0__fillcap_64
XFILLER_0_58 vccd1 vssd1 gf180mcu_fd_sc_mcu7t5v0__fillcap_8
XFILLER_36_2 vccd1 vssd1 gf180mcu_fd_sc_mcu7t5v0__fillcap_32
XANTENNA__153__CLK net1 vccd1 vssd1 gf180mcu_fd_sc_mcu7t5v0__antenna
XFILLER_37_354 vccd1 vssd1 gf180mcu_fd_sc_mcu7t5v0__fill_1
XFILLER_52_313 vccd1 vssd1 gf180mcu_fd_sc_mcu7t5v0__fillcap_4
XFILLER_20_243 vccd1 vssd1 gf180mcu_fd_sc_mcu7t5v0__fillcap_4
XFILLER_28_321 vccd1 vssd1 gf180mcu_fd_sc_mcu7t5v0__fillcap_64
XFILLER_34_31 vccd1 vssd1 gf180mcu_fd_sc_mcu7t5v0__fillcap_4
XFILLER_43_357 vccd1 vssd1 gf180mcu_fd_sc_mcu7t5v0__fillcap_32
X_113_ _004_ _007_ _006_ _015_ vccd1 vssd1 gf180mcu_fd_sc_mcu7t5v0__aoi21_1
XFILLER_50_30 vccd1 vssd1 gf180mcu_fd_sc_mcu7t5v0__fill_2
XFILLER_50_74 vccd1 vssd1 gf180mcu_fd_sc_mcu7t5v0__fill_2
XFILLER_50_52 vccd1 vssd1 gf180mcu_fd_sc_mcu7t5v0__fill_2
XFILLER_19_354 vccd1 vssd1 gf180mcu_fd_sc_mcu7t5v0__fill_1
XFILLER_46_162 vccd1 vssd1 gf180mcu_fd_sc_mcu7t5v0__fill_2
XFILLER_25_357 vccd1 vssd1 gf180mcu_fd_sc_mcu7t5v0__fillcap_32
XFILLER_52_165 vccd1 vssd1 gf180mcu_fd_sc_mcu7t5v0__fill_2
XFILLER_52_176 vccd1 vssd1 gf180mcu_fd_sc_mcu7t5v0__fill_1
XFILLER_0_401 vccd1 vssd1 gf180mcu_fd_sc_mcu7t5v0__fillcap_8
XFILLER_48_416 vccd1 vssd1 gf180mcu_fd_sc_mcu7t5v0__fillcap_4
XFILLER_43_187 vccd1 vssd1 gf180mcu_fd_sc_mcu7t5v0__fill_2
XFILLER_3_283 vccd1 vssd1 gf180mcu_fd_sc_mcu7t5v0__fill_1
XTAP_305 vccd1 vssd1 gf180mcu_fd_sc_mcu7t5v0__filltie
XTAP_316 vccd1 vssd1 gf180mcu_fd_sc_mcu7t5v0__filltie
XTAP_327 vccd1 vssd1 gf180mcu_fd_sc_mcu7t5v0__filltie
XFILLER_39_405 vccd1 vssd1 gf180mcu_fd_sc_mcu7t5v0__fillcap_8
XTAP_338 vccd1 vssd1 gf180mcu_fd_sc_mcu7t5v0__filltie
XTAP_349 vccd1 vssd1 gf180mcu_fd_sc_mcu7t5v0__filltie
XFILLER_54_419 vccd1 vssd1 gf180mcu_fd_sc_mcu7t5v0__fill_1
XFILLER_34_176 vccd1 vssd1 gf180mcu_fd_sc_mcu7t5v0__fill_1
XFILLER_45_419 vccd1 vssd1 gf180mcu_fd_sc_mcu7t5v0__fill_1
XFILLER_15_66 vccd1 vssd1 gf180mcu_fd_sc_mcu7t5v0__fillcap_4
XFILLER_40_179 vccd1 vssd1 gf180mcu_fd_sc_mcu7t5v0__fillcap_64
Xoutput10 net10 io_out[27] vccd1 vssd1 gf180mcu_fd_sc_mcu7t5v0__clkbuf_4
Xoutput8 net8 io_out[25] vccd1 vssd1 gf180mcu_fd_sc_mcu7t5v0__clkbuf_4
XFILLER_0_220 vccd1 vssd1 gf180mcu_fd_sc_mcu7t5v0__fill_2
XFILLER_48_224 vccd1 vssd1 gf180mcu_fd_sc_mcu7t5v0__fill_2
XFILLER_0_275 vccd1 vssd1 gf180mcu_fd_sc_mcu7t5v0__fillcap_4
XFILLER_36_408 vccd1 vssd1 gf180mcu_fd_sc_mcu7t5v0__fillcap_4
XFILLER_36_419 vccd1 vssd1 gf180mcu_fd_sc_mcu7t5v0__fill_1
XFILLER_16_176 vccd1 vssd1 gf180mcu_fd_sc_mcu7t5v0__fill_1
XTAP_168 vccd1 vssd1 gf180mcu_fd_sc_mcu7t5v0__filltie
XTAP_157 vccd1 vssd1 gf180mcu_fd_sc_mcu7t5v0__filltie
XTAP_146 vccd1 vssd1 gf180mcu_fd_sc_mcu7t5v0__filltie
XTAP_135 vccd1 vssd1 gf180mcu_fd_sc_mcu7t5v0__filltie
XTAP_113 vccd1 vssd1 gf180mcu_fd_sc_mcu7t5v0__filltie
XTAP_124 vccd1 vssd1 gf180mcu_fd_sc_mcu7t5v0__filltie
XTAP_179 vccd1 vssd1 gf180mcu_fd_sc_mcu7t5v0__filltie
XFILLER_27_419 vccd1 vssd1 gf180mcu_fd_sc_mcu7t5v0__fill_1
XFILLER_39_279 vccd1 vssd1 gf180mcu_fd_sc_mcu7t5v0__fillcap_4
XFILLER_22_179 vccd1 vssd1 gf180mcu_fd_sc_mcu7t5v0__fillcap_64
XFILLER_18_408 vccd1 vssd1 gf180mcu_fd_sc_mcu7t5v0__fillcap_4
XFILLER_18_419 vccd1 vssd1 gf180mcu_fd_sc_mcu7t5v0__fill_1
XFILLER_5_389 vccd1 vssd1 gf180mcu_fd_sc_mcu7t5v0__fillcap_16
XFILLER_8_172 vccd1 vssd1 gf180mcu_fd_sc_mcu7t5v0__fillcap_4
XFILLER_10_105 vccd1 vssd1 gf180mcu_fd_sc_mcu7t5v0__fill_1
XFILLER_12_34 vccd1 vssd1 gf180mcu_fd_sc_mcu7t5v0__fill_1
XFILLER_33_208 vccd1 vssd1 gf180mcu_fd_sc_mcu7t5v0__fillcap_4
XFILLER_45_7 vccd1 vssd1 gf180mcu_fd_sc_mcu7t5v0__fillcap_64
XFILLER_15_208 vccd1 vssd1 gf180mcu_fd_sc_mcu7t5v0__fillcap_4
X_060_ mod.flipflop11.q mod.flipflop11.d vccd1 vssd1 gf180mcu_fd_sc_mcu7t5v0__clkinv_1
XFILLER_2_101 vccd1 vssd1 gf180mcu_fd_sc_mcu7t5v0__fillcap_4
XFILLER_48_74 vccd1 vssd1 gf180mcu_fd_sc_mcu7t5v0__fill_2
XFILLER_48_41 vccd1 vssd1 gf180mcu_fd_sc_mcu7t5v0__fill_2
XFILLER_0_37 vccd1 vssd1 gf180mcu_fd_sc_mcu7t5v0__fill_1
XFILLER_29_2 vccd1 vssd1 gf180mcu_fd_sc_mcu7t5v0__fillcap_64
X_112_ _028_ _014_ _013_ mod.flipflop19.d vccd1 vssd1 gf180mcu_fd_sc_mcu7t5v0__oai21_1
XFILLER_7_215 vccd1 vssd1 gf180mcu_fd_sc_mcu7t5v0__fillcap_64
XFILLER_34_314 vccd1 vssd1 gf180mcu_fd_sc_mcu7t5v0__fillcap_4
XFILLER_38_108 vccd1 vssd1 gf180mcu_fd_sc_mcu7t5v0__fillcap_64
XFILLER_46_196 vccd1 vssd1 gf180mcu_fd_sc_mcu7t5v0__fill_2
XFILLER_37_141 vccd1 vssd1 gf180mcu_fd_sc_mcu7t5v0__fill_1
XFILLER_0_413 vccd1 vssd1 gf180mcu_fd_sc_mcu7t5v0__fill_2
XFILLER_20_23 vccd1 vssd1 gf180mcu_fd_sc_mcu7t5v0__fillcap_8
XFILLER_16_314 vccd1 vssd1 gf180mcu_fd_sc_mcu7t5v0__fillcap_4
XFILLER_43_111 vccd1 vssd1 gf180mcu_fd_sc_mcu7t5v0__fill_2
XFILLER_43_133 vccd1 vssd1 gf180mcu_fd_sc_mcu7t5v0__fill_2
XFILLER_43_144 vccd1 vssd1 gf180mcu_fd_sc_mcu7t5v0__fill_1
XANTENNA__143__CLK mod.flipflop5.q vccd1 vssd1 gf180mcu_fd_sc_mcu7t5v0__antenna
XTAP_306 vccd1 vssd1 gf180mcu_fd_sc_mcu7t5v0__filltie
XTAP_317 vccd1 vssd1 gf180mcu_fd_sc_mcu7t5v0__filltie
XTAP_328 vccd1 vssd1 gf180mcu_fd_sc_mcu7t5v0__filltie
XFILLER_39_417 vccd1 vssd1 gf180mcu_fd_sc_mcu7t5v0__fill_2
XTAP_339 vccd1 vssd1 gf180mcu_fd_sc_mcu7t5v0__filltie
XFILLER_19_141 vccd1 vssd1 gf180mcu_fd_sc_mcu7t5v0__fill_1
XFILLER_25_144 vccd1 vssd1 gf180mcu_fd_sc_mcu7t5v0__fillcap_64
XFILLER_21_350 vccd1 vssd1 gf180mcu_fd_sc_mcu7t5v0__fillcap_4
XFILLER_31_66 vccd1 vssd1 gf180mcu_fd_sc_mcu7t5v0__fillcap_4
Xoutput9 net9 io_out[26] vccd1 vssd1 gf180mcu_fd_sc_mcu7t5v0__clkbuf_4
XFILLER_0_243 vccd1 vssd1 gf180mcu_fd_sc_mcu7t5v0__fill_2
XFILLER_48_236 vccd1 vssd1 gf180mcu_fd_sc_mcu7t5v0__fill_2
XFILLER_0_298 vccd1 vssd1 gf180mcu_fd_sc_mcu7t5v0__fill_2
XFILLER_8_321 vccd1 vssd1 gf180mcu_fd_sc_mcu7t5v0__fillcap_64
XTAP_114 vccd1 vssd1 gf180mcu_fd_sc_mcu7t5v0__filltie
XTAP_169 vccd1 vssd1 gf180mcu_fd_sc_mcu7t5v0__filltie
XTAP_158 vccd1 vssd1 gf180mcu_fd_sc_mcu7t5v0__filltie
XTAP_147 vccd1 vssd1 gf180mcu_fd_sc_mcu7t5v0__filltie
XTAP_136 vccd1 vssd1 gf180mcu_fd_sc_mcu7t5v0__filltie
XTAP_125 vccd1 vssd1 gf180mcu_fd_sc_mcu7t5v0__filltie
XFILLER_11_2 vccd1 vssd1 gf180mcu_fd_sc_mcu7t5v0__fillcap_64
XFILLER_45_206 vccd1 vssd1 gf180mcu_fd_sc_mcu7t5v0__fill_2
XFILLER_53_272 vccd1 vssd1 gf180mcu_fd_sc_mcu7t5v0__fill_2
XFILLER_5_357 vccd1 vssd1 gf180mcu_fd_sc_mcu7t5v0__fillcap_32
XFILLER_44_250 vccd1 vssd1 gf180mcu_fd_sc_mcu7t5v0__fillcap_64
XANTENNA__099__I mod.flipflop27.q vccd1 vssd1 gf180mcu_fd_sc_mcu7t5v0__antenna
XFILLER_50_253 vccd1 vssd1 gf180mcu_fd_sc_mcu7t5v0__fill_2
XFILLER_35_283 vccd1 vssd1 gf180mcu_fd_sc_mcu7t5v0__fill_1
XFILLER_5_7 vccd1 vssd1 gf180mcu_fd_sc_mcu7t5v0__fillcap_64
XFILLER_26_250 vccd1 vssd1 gf180mcu_fd_sc_mcu7t5v0__fillcap_64
XFILLER_41_286 vccd1 vssd1 gf180mcu_fd_sc_mcu7t5v0__fillcap_64
XFILLER_38_7 vccd1 vssd1 gf180mcu_fd_sc_mcu7t5v0__fillcap_16
XFILLER_17_283 vccd1 vssd1 gf180mcu_fd_sc_mcu7t5v0__fill_1
XFILLER_7_419 vccd1 vssd1 gf180mcu_fd_sc_mcu7t5v0__fill_1
XFILLER_23_286 vccd1 vssd1 gf180mcu_fd_sc_mcu7t5v0__fillcap_64
XFILLER_2_179 vccd1 vssd1 gf180mcu_fd_sc_mcu7t5v0__fillcap_64
XFILLER_0_27 vccd1 vssd1 gf180mcu_fd_sc_mcu7t5v0__fillcap_8
XFILLER_46_389 vccd1 vssd1 gf180mcu_fd_sc_mcu7t5v0__fill_1
XFILLER_37_389 vccd1 vssd1 gf180mcu_fd_sc_mcu7t5v0__fillcap_16
XANTENNA__092__A1 _028_ vccd1 vssd1 gf180mcu_fd_sc_mcu7t5v0__antenna
XFILLER_18_23 vccd1 vssd1 gf180mcu_fd_sc_mcu7t5v0__fillcap_8
XFILLER_11_212 vccd1 vssd1 gf180mcu_fd_sc_mcu7t5v0__fill_1
XFILLER_28_389 vccd1 vssd1 gf180mcu_fd_sc_mcu7t5v0__fill_1
X_111_ _029_ _002_ _049_ _014_ vccd1 vssd1 gf180mcu_fd_sc_mcu7t5v0__aoi21_1
XFILLER_46_186 vccd1 vssd1 gf180mcu_fd_sc_mcu7t5v0__fill_2
XFILLER_46_131 vccd1 vssd1 gf180mcu_fd_sc_mcu7t5v0__fill_2
XFILLER_19_389 vccd1 vssd1 gf180mcu_fd_sc_mcu7t5v0__fillcap_16
XFILLER_42_392 vccd1 vssd1 gf180mcu_fd_sc_mcu7t5v0__fillcap_16
XFILLER_41_2 vccd1 vssd1 gf180mcu_fd_sc_mcu7t5v0__fill_1
XFILLER_52_134 vccd1 vssd1 gf180mcu_fd_sc_mcu7t5v0__fill_2
XFILLER_40_318 vccd1 vssd1 gf180mcu_fd_sc_mcu7t5v0__fill_1
XFILLER_29_66 vccd1 vssd1 gf180mcu_fd_sc_mcu7t5v0__fillcap_4
XFILLER_43_123 vccd1 vssd1 gf180mcu_fd_sc_mcu7t5v0__fill_2
XFILLER_24_392 vccd1 vssd1 gf180mcu_fd_sc_mcu7t5v0__fillcap_16
XFILLER_43_167 vccd1 vssd1 gf180mcu_fd_sc_mcu7t5v0__fill_2
XFILLER_45_87 vccd1 vssd1 gf180mcu_fd_sc_mcu7t5v0__fill_2
XANTENNA__132__D mod.flipflop17.d vccd1 vssd1 gf180mcu_fd_sc_mcu7t5v0__antenna
XFILLER_6_37 vccd1 vssd1 gf180mcu_fd_sc_mcu7t5v0__fillcap_64
XFILLER_20_7 vccd1 vssd1 gf180mcu_fd_sc_mcu7t5v0__fillcap_16
XTAP_307 vccd1 vssd1 gf180mcu_fd_sc_mcu7t5v0__filltie
XTAP_318 vccd1 vssd1 gf180mcu_fd_sc_mcu7t5v0__filltie
XTAP_329 vccd1 vssd1 gf180mcu_fd_sc_mcu7t5v0__filltie
XFILLER_22_318 vccd1 vssd1 gf180mcu_fd_sc_mcu7t5v0__fill_1
XFILLER_34_101 vccd1 vssd1 gf180mcu_fd_sc_mcu7t5v0__fillcap_4
XFILLER_40_159 vccd1 vssd1 gf180mcu_fd_sc_mcu7t5v0__fillcap_16
XFILLER_48_215 vccd1 vssd1 gf180mcu_fd_sc_mcu7t5v0__fill_2
XFILLER_0_222 vccd1 vssd1 gf180mcu_fd_sc_mcu7t5v0__fill_1
XFILLER_16_101 vccd1 vssd1 gf180mcu_fd_sc_mcu7t5v0__fillcap_4
XFILLER_31_137 vccd1 vssd1 gf180mcu_fd_sc_mcu7t5v0__fillcap_4
XTAP_148 vccd1 vssd1 gf180mcu_fd_sc_mcu7t5v0__filltie
XTAP_137 vccd1 vssd1 gf180mcu_fd_sc_mcu7t5v0__filltie
XTAP_126 vccd1 vssd1 gf180mcu_fd_sc_mcu7t5v0__filltie
XTAP_115 vccd1 vssd1 gf180mcu_fd_sc_mcu7t5v0__filltie
XTAP_159 vccd1 vssd1 gf180mcu_fd_sc_mcu7t5v0__filltie
XFILLER_39_215 vccd1 vssd1 gf180mcu_fd_sc_mcu7t5v0__fillcap_64
XANTENNA__133__CLK mod.flipflop15.q vccd1 vssd1 gf180mcu_fd_sc_mcu7t5v0__antenna
XFILLER_26_34 vccd1 vssd1 gf180mcu_fd_sc_mcu7t5v0__fill_1
XFILLER_41_413 vccd1 vssd1 gf180mcu_fd_sc_mcu7t5v0__fillcap_4
XFILLER_13_137 vccd1 vssd1 gf180mcu_fd_sc_mcu7t5v0__fillcap_4
XFILLER_23_413 vccd1 vssd1 gf180mcu_fd_sc_mcu7t5v0__fillcap_4
XFILLER_50_232 vccd1 vssd1 gf180mcu_fd_sc_mcu7t5v0__fill_2
XFILLER_37_66 vccd1 vssd1 gf180mcu_fd_sc_mcu7t5v0__fillcap_4
XFILLER_53_21 vccd1 vssd1 gf180mcu_fd_sc_mcu7t5v0__fill_2
XANTENNA__151__CLKN net1 vccd1 vssd1 gf180mcu_fd_sc_mcu7t5v0__antenna
XFILLER_5_144 vccd1 vssd1 gf180mcu_fd_sc_mcu7t5v0__fillcap_64
XFILLER_1_350 vccd1 vssd1 gf180mcu_fd_sc_mcu7t5v0__fillcap_4
XFILLER_49_354 vccd1 vssd1 gf180mcu_fd_sc_mcu7t5v0__fill_1
XFILLER_20_416 vccd1 vssd1 gf180mcu_fd_sc_mcu7t5v0__fillcap_4
XFILLER_32_243 vccd1 vssd1 gf180mcu_fd_sc_mcu7t5v0__fillcap_4
XFILLER_11_405 vccd1 vssd1 gf180mcu_fd_sc_mcu7t5v0__fillcap_8
XFILLER_48_43 vccd1 vssd1 gf180mcu_fd_sc_mcu7t5v0__fill_1
XFILLER_48_54 vccd1 vssd1 gf180mcu_fd_sc_mcu7t5v0__fill_2
XFILLER_0_17 vccd1 vssd1 gf180mcu_fd_sc_mcu7t5v0__fill_2
XFILLER_14_243 vccd1 vssd1 gf180mcu_fd_sc_mcu7t5v0__fillcap_4
XFILLER_50_7 vccd1 vssd1 gf180mcu_fd_sc_mcu7t5v0__fillcap_16
XANTENNA__135__D mod.flipflop14.d vccd1 vssd1 gf180mcu_fd_sc_mcu7t5v0__antenna
XFILLER_37_357 vccd1 vssd1 gf180mcu_fd_sc_mcu7t5v0__fillcap_32
XANTENNA__092__A2 _043_ vccd1 vssd1 gf180mcu_fd_sc_mcu7t5v0__antenna
X_110_ _028_ _011_ _013_ mod.flipflop20.d vccd1 vssd1 gf180mcu_fd_sc_mcu7t5v0__oai21_1
XFILLER_34_23 vccd1 vssd1 gf180mcu_fd_sc_mcu7t5v0__fillcap_8
XFILLER_50_44 vccd1 vssd1 gf180mcu_fd_sc_mcu7t5v0__fill_2
XFILLER_11_279 vccd1 vssd1 gf180mcu_fd_sc_mcu7t5v0__fillcap_4
XFILLER_1_2 vccd1 vssd1 gf180mcu_fd_sc_mcu7t5v0__fill_1
XFILLER_46_176 vccd1 vssd1 gf180mcu_fd_sc_mcu7t5v0__fill_1
XFILLER_46_121 vccd1 vssd1 gf180mcu_fd_sc_mcu7t5v0__fill_2
XFILLER_19_357 vccd1 vssd1 gf180mcu_fd_sc_mcu7t5v0__fillcap_32
XFILLER_6_250 vccd1 vssd1 gf180mcu_fd_sc_mcu7t5v0__fillcap_64
XFILLER_34_2 vccd1 vssd1 gf180mcu_fd_sc_mcu7t5v0__fill_1
XFILLER_52_179 vccd1 vssd1 gf180mcu_fd_sc_mcu7t5v0__fill_1
XFILLER_48_408 vccd1 vssd1 gf180mcu_fd_sc_mcu7t5v0__fillcap_8
XFILLER_28_176 vccd1 vssd1 gf180mcu_fd_sc_mcu7t5v0__fill_1
XFILLER_45_99 vccd1 vssd1 gf180mcu_fd_sc_mcu7t5v0__fill_2
XANTENNA_output10_I net10 vccd1 vssd1 gf180mcu_fd_sc_mcu7t5v0__antenna
XFILLER_43_179 vccd1 vssd1 gf180mcu_fd_sc_mcu7t5v0__fill_2
XFILLER_3_286 vccd1 vssd1 gf180mcu_fd_sc_mcu7t5v0__fillcap_64
XTAP_308 vccd1 vssd1 gf180mcu_fd_sc_mcu7t5v0__filltie
XTAP_319 vccd1 vssd1 gf180mcu_fd_sc_mcu7t5v0__filltie
XFILLER_39_419 vccd1 vssd1 gf180mcu_fd_sc_mcu7t5v0__fill_1
XFILLER_34_179 vccd1 vssd1 gf180mcu_fd_sc_mcu7t5v0__fillcap_64
XFILLER_30_385 vccd1 vssd1 gf180mcu_fd_sc_mcu7t5v0__fillcap_4
XFILLER_40_105 vccd1 vssd1 gf180mcu_fd_sc_mcu7t5v0__fill_1
XFILLER_40_149 vccd1 vssd1 gf180mcu_fd_sc_mcu7t5v0__fillcap_4
XFILLER_0_212 vccd1 vssd1 gf180mcu_fd_sc_mcu7t5v0__fillcap_8
XFILLER_48_205 vccd1 vssd1 gf180mcu_fd_sc_mcu7t5v0__fill_2
XFILLER_16_179 vccd1 vssd1 gf180mcu_fd_sc_mcu7t5v0__fillcap_64
XANTENNA__143__D mod.flipflop6.d vccd1 vssd1 gf180mcu_fd_sc_mcu7t5v0__antenna
XFILLER_8_389 vccd1 vssd1 gf180mcu_fd_sc_mcu7t5v0__fill_1
XFILLER_12_385 vccd1 vssd1 gf180mcu_fd_sc_mcu7t5v0__fillcap_4
XTAP_149 vccd1 vssd1 gf180mcu_fd_sc_mcu7t5v0__filltie
XTAP_138 vccd1 vssd1 gf180mcu_fd_sc_mcu7t5v0__filltie
XTAP_127 vccd1 vssd1 gf180mcu_fd_sc_mcu7t5v0__filltie
XTAP_116 vccd1 vssd1 gf180mcu_fd_sc_mcu7t5v0__filltie
XFILLER_54_208 vccd1 vssd1 gf180mcu_fd_sc_mcu7t5v0__fill_2
XFILLER_47_282 vccd1 vssd1 gf180mcu_fd_sc_mcu7t5v0__fill_2
XFILLER_22_105 vccd1 vssd1 gf180mcu_fd_sc_mcu7t5v0__fill_1
XFILLER_53_252 vccd1 vssd1 gf180mcu_fd_sc_mcu7t5v0__fill_2
XFILLER_42_34 vccd1 vssd1 gf180mcu_fd_sc_mcu7t5v0__fill_1
XANTENNA__138__D mod.flipflop11.d vccd1 vssd1 gf180mcu_fd_sc_mcu7t5v0__antenna
XANTENNA__110__A1 _028_ vccd1 vssd1 gf180mcu_fd_sc_mcu7t5v0__antenna
XANTENNA_input1_I io_in[12] vccd1 vssd1 gf180mcu_fd_sc_mcu7t5v0__antenna
XFILLER_4_392 vccd1 vssd1 gf180mcu_fd_sc_mcu7t5v0__fillcap_16
XFILLER_27_208 vccd1 vssd1 gf180mcu_fd_sc_mcu7t5v0__fillcap_4
XFILLER_50_244 vccd1 vssd1 gf180mcu_fd_sc_mcu7t5v0__fillcap_4
XFILLER_10_108 vccd1 vssd1 gf180mcu_fd_sc_mcu7t5v0__fillcap_64
XFILLER_12_37 vccd1 vssd1 gf180mcu_fd_sc_mcu7t5v0__fillcap_64
XANTENNA__080__B _035_ vccd1 vssd1 gf180mcu_fd_sc_mcu7t5v0__antenna
XFILLER_2_318 vccd1 vssd1 gf180mcu_fd_sc_mcu7t5v0__fill_1
XANTENNA__101__A1 _005_ vccd1 vssd1 gf180mcu_fd_sc_mcu7t5v0__antenna
XFILLER_53_33 vccd1 vssd1 gf180mcu_fd_sc_mcu7t5v0__fill_2
XFILLER_41_211 vccd1 vssd1 gf180mcu_fd_sc_mcu7t5v0__fill_2
XFILLER_48_66 vccd1 vssd1 gf180mcu_fd_sc_mcu7t5v0__fill_2
XFILLER_46_314 vccd1 vssd1 gf180mcu_fd_sc_mcu7t5v0__fillcap_4
XANTENNA__146__CLK mod.flipflop2.q vccd1 vssd1 gf180mcu_fd_sc_mcu7t5v0__antenna
XFILLER_43_7 vccd1 vssd1 gf180mcu_fd_sc_mcu7t5v0__fillcap_64
XFILLER_49_174 vccd1 vssd1 gf180mcu_fd_sc_mcu7t5v0__fill_2
XFILLER_49_141 vccd1 vssd1 gf180mcu_fd_sc_mcu7t5v0__fill_1
XFILLER_52_317 vccd1 vssd1 gf180mcu_fd_sc_mcu7t5v0__fill_2
XFILLER_20_247 vccd1 vssd1 gf180mcu_fd_sc_mcu7t5v0__fill_1
XFILLER_28_314 vccd1 vssd1 gf180mcu_fd_sc_mcu7t5v0__fillcap_4
XFILLER_51_350 vccd1 vssd1 gf180mcu_fd_sc_mcu7t5v0__fillcap_4
XFILLER_50_23 vccd1 vssd1 gf180mcu_fd_sc_mcu7t5v0__fillcap_4
XFILLER_50_56 vccd1 vssd1 gf180mcu_fd_sc_mcu7t5v0__fill_2
XFILLER_50_34 vccd1 vssd1 gf180mcu_fd_sc_mcu7t5v0__fill_1
XFILLER_3_413 vccd1 vssd1 gf180mcu_fd_sc_mcu7t5v0__fillcap_4
XFILLER_46_111 vccd1 vssd1 gf180mcu_fd_sc_mcu7t5v0__fill_2
XFILLER_27_2 vccd1 vssd1 gf180mcu_fd_sc_mcu7t5v0__fill_1
XFILLER_1_61 vccd1 vssd1 gf180mcu_fd_sc_mcu7t5v0__fillcap_8
XFILLER_37_144 vccd1 vssd1 gf180mcu_fd_sc_mcu7t5v0__fillcap_64
XFILLER_33_350 vccd1 vssd1 gf180mcu_fd_sc_mcu7t5v0__fillcap_4
XFILLER_20_37 vccd1 vssd1 gf180mcu_fd_sc_mcu7t5v0__fillcap_64
XTAP_309 vccd1 vssd1 gf180mcu_fd_sc_mcu7t5v0__filltie
XFILLER_19_144 vccd1 vssd1 gf180mcu_fd_sc_mcu7t5v0__fillcap_64
XFILLER_15_350 vccd1 vssd1 gf180mcu_fd_sc_mcu7t5v0__fillcap_4
XFILLER_48_228 vccd1 vssd1 gf180mcu_fd_sc_mcu7t5v0__fill_2
XFILLER_48_217 vccd1 vssd1 gf180mcu_fd_sc_mcu7t5v0__fill_1
XFILLER_44_412 vccd1 vssd1 gf180mcu_fd_sc_mcu7t5v0__fill_2
XFILLER_0_268 vccd1 vssd1 gf180mcu_fd_sc_mcu7t5v0__fill_2
XFILLER_0_279 vccd1 vssd1 gf180mcu_fd_sc_mcu7t5v0__fill_1
XTAP_139 vccd1 vssd1 gf180mcu_fd_sc_mcu7t5v0__filltie
XTAP_128 vccd1 vssd1 gf180mcu_fd_sc_mcu7t5v0__filltie
XTAP_117 vccd1 vssd1 gf180mcu_fd_sc_mcu7t5v0__filltie
XPHY_0 vccd1 vssd1 gf180mcu_fd_sc_mcu7t5v0__endcap
XFILLER_30_172 vccd1 vssd1 gf180mcu_fd_sc_mcu7t5v0__fillcap_4
XFILLER_26_412 vccd1 vssd1 gf180mcu_fd_sc_mcu7t5v0__fill_2
XFILLER_38_250 vccd1 vssd1 gf180mcu_fd_sc_mcu7t5v0__fillcap_64
XFILLER_53_297 vccd1 vssd1 gf180mcu_fd_sc_mcu7t5v0__fill_1
XFILLER_53_286 vccd1 vssd1 gf180mcu_fd_sc_mcu7t5v0__fill_1
XFILLER_53_264 vccd1 vssd1 gf180mcu_fd_sc_mcu7t5v0__fill_2
XFILLER_29_283 vccd1 vssd1 gf180mcu_fd_sc_mcu7t5v0__fill_1
XANTENNA__154__D mod.flipflop11.q vccd1 vssd1 gf180mcu_fd_sc_mcu7t5v0__antenna
XFILLER_12_172 vccd1 vssd1 gf180mcu_fd_sc_mcu7t5v0__fillcap_4
XFILLER_8_176 vccd1 vssd1 gf180mcu_fd_sc_mcu7t5v0__fill_1
XFILLER_35_286 vccd1 vssd1 gf180mcu_fd_sc_mcu7t5v0__fillcap_64
XANTENNA__101__A2 _039_ vccd1 vssd1 gf180mcu_fd_sc_mcu7t5v0__antenna
XFILLER_49_389 vccd1 vssd1 gf180mcu_fd_sc_mcu7t5v0__fillcap_16
XFILLER_17_286 vccd1 vssd1 gf180mcu_fd_sc_mcu7t5v0__fillcap_64
XANTENNA__095__A1 _024_ vccd1 vssd1 gf180mcu_fd_sc_mcu7t5v0__antenna
XFILLER_23_212 vccd1 vssd1 gf180mcu_fd_sc_mcu7t5v0__fill_1
XFILLER_2_105 vccd1 vssd1 gf180mcu_fd_sc_mcu7t5v0__fill_1
XFILLER_48_34 vccd1 vssd1 gf180mcu_fd_sc_mcu7t5v0__fill_1
XANTENNA__086__A1 _030_ vccd1 vssd1 gf180mcu_fd_sc_mcu7t5v0__antenna
XFILLER_13_70 vccd1 vssd1 gf180mcu_fd_sc_mcu7t5v0__fill_1
XFILLER_18_37 vccd1 vssd1 gf180mcu_fd_sc_mcu7t5v0__fillcap_64
XFILLER_36_392 vccd1 vssd1 gf180mcu_fd_sc_mcu7t5v0__fillcap_16
XFILLER_7_208 vccd1 vssd1 gf180mcu_fd_sc_mcu7t5v0__fillcap_4
XFILLER_11_215 vccd1 vssd1 gf180mcu_fd_sc_mcu7t5v0__fillcap_64
XFILLER_50_68 vccd1 vssd1 gf180mcu_fd_sc_mcu7t5v0__fill_2
XFILLER_34_318 vccd1 vssd1 gf180mcu_fd_sc_mcu7t5v0__fill_1
X_099_ mod.flipflop27.q _004_ vccd1 vssd1 gf180mcu_fd_sc_mcu7t5v0__clkbuf_1
XFILLER_1_73 vccd1 vssd1 gf180mcu_fd_sc_mcu7t5v0__fillcap_64
XFILLER_18_392 vccd1 vssd1 gf180mcu_fd_sc_mcu7t5v0__fillcap_16
XFILLER_28_101 vccd1 vssd1 gf180mcu_fd_sc_mcu7t5v0__fillcap_4
XANTENNA__136__CLK mod.flipflop12.q vccd1 vssd1 gf180mcu_fd_sc_mcu7t5v0__antenna
XFILLER_16_318 vccd1 vssd1 gf180mcu_fd_sc_mcu7t5v0__fill_1
XFILLER_43_115 vccd1 vssd1 gf180mcu_fd_sc_mcu7t5v0__fill_2
XFILLER_45_79 vccd1 vssd1 gf180mcu_fd_sc_mcu7t5v0__fill_2
XFILLER_30_321 vccd1 vssd1 gf180mcu_fd_sc_mcu7t5v0__fillcap_64
XFILLER_53_413 vccd1 vssd1 gf180mcu_fd_sc_mcu7t5v0__fillcap_4
XFILLER_25_137 vccd1 vssd1 gf180mcu_fd_sc_mcu7t5v0__fillcap_4
XFILLER_21_354 vccd1 vssd1 gf180mcu_fd_sc_mcu7t5v0__fill_1
XFILLER_0_247 vccd1 vssd1 gf180mcu_fd_sc_mcu7t5v0__fill_1
XFILLER_8_314 vccd1 vssd1 gf180mcu_fd_sc_mcu7t5v0__fillcap_4
XFILLER_12_321 vccd1 vssd1 gf180mcu_fd_sc_mcu7t5v0__fillcap_64