*SPEF "ieee 1481-1999"
*DESIGN "tiny_user_project"
*DATE "11:11:11 Fri 11 11, 1111"
*VENDOR "OpenRCX"
*PROGRAM "Parallel Extraction"
*VERSION "1.0"
*DESIGN_FLOW "NAME_SCOPE LOCAL" "PIN_CAP NONE"
*DIVIDER /
*DELIMITER :
*BUS_DELIMITER []
*T_UNIT 1 NS
*C_UNIT 1 PF
*R_UNIT 1 OHM
*L_UNIT 1 HENRY

*NAME_MAP
*1 io_in[0]
*2 io_in[10]
*3 io_in[11]
*4 io_in[12]
*5 io_in[13]
*6 io_in[14]
*7 io_in[15]
*8 io_in[16]
*9 io_in[17]
*10 io_in[18]
*11 io_in[19]
*12 io_in[1]
*13 io_in[20]
*14 io_in[21]
*15 io_in[22]
*16 io_in[23]
*17 io_in[24]
*18 io_in[25]
*19 io_in[26]
*20 io_in[27]
*21 io_in[28]
*22 io_in[29]
*23 io_in[2]
*24 io_in[30]
*25 io_in[31]
*26 io_in[32]
*27 io_in[33]
*28 io_in[34]
*29 io_in[35]
*30 io_in[36]
*31 io_in[37]
*32 io_in[3]
*33 io_in[4]
*34 io_in[5]
*35 io_in[6]
*36 io_in[7]
*37 io_in[8]
*38 io_in[9]
*39 net41
*40 net51
*41 net52
*42 net53
*43 net54
*44 net55
*45 net56
*46 net57
*47 net58
*48 net59
*49 net60
*50 net42
*51 net61
*52 net62
*53 net63
*54 net64
*55 net65
*56 net66
*57 net67
*58 net68
*59 net69
*60 net70
*61 net43
*62 net71
*63 net72
*64 net73
*65 net74
*66 net75
*67 net76
*68 net77
*69 net78
*70 net44
*71 net45
*72 net46
*73 net47
*74 net48
*75 net49
*76 net50
*77 net11
*78 net21
*79 net22
*80 net23
*81 net24
*82 net25
*83 net26
*84 net27
*85 net28
*86 net29
*87 net30
*88 net12
*89 io_out[20]
*90 io_out[21]
*91 io_out[22]
*92 io_out[23]
*93 io_out[24]
*94 io_out[25]
*95 io_out[26]
*96 io_out[27]
*97 net31
*98 net32
*99 net13
*100 net33
*101 net34
*102 net35
*103 net36
*104 net37
*105 net38
*106 net39
*107 net40
*108 net14
*109 net15
*110 net16
*111 net17
*112 net18
*113 net19
*114 net20
*117 _000_
*118 _001_
*119 _002_
*120 _003_
*121 _004_
*122 _005_
*123 _006_
*124 _007_
*125 _008_
*126 _009_
*127 _010_
*128 _011_
*129 _012_
*130 _013_
*131 _014_
*132 _015_
*133 _016_
*134 _017_
*135 _018_
*136 _019_
*137 _020_
*138 _021_
*139 _022_
*140 _023_
*141 _024_
*142 _025_
*143 _026_
*144 _027_
*145 _028_
*146 _029_
*147 _030_
*148 _031_
*149 _032_
*150 _033_
*151 _034_
*152 _035_
*153 _036_
*154 _037_
*155 _038_
*156 _039_
*157 _040_
*158 _041_
*159 _042_
*160 _043_
*161 _044_
*162 _045_
*163 _046_
*164 _047_
*165 _048_
*166 _049_
*167 mod\.flipflop1\.d
*168 mod\.flipflop1\.q
*169 mod\.flipflop10\.clk
*170 mod\.flipflop10\.d
*171 mod\.flipflop10\.q
*172 mod\.flipflop11\.d
*173 mod\.flipflop11\.q
*174 mod\.flipflop12\.d
*175 mod\.flipflop12\.q
*176 mod\.flipflop13\.d
*177 mod\.flipflop13\.q
*178 mod\.flipflop14\.d
*179 mod\.flipflop14\.q
*180 mod\.flipflop15\.d
*181 mod\.flipflop15\.q
*182 mod\.flipflop16\.d
*183 mod\.flipflop16\.q
*184 mod\.flipflop17\.d
*185 mod\.flipflop17\.q
*186 mod\.flipflop18\.d
*187 mod\.flipflop19\.d
*188 mod\.flipflop2\.d
*189 mod\.flipflop2\.q
*190 mod\.flipflop20\.d
*191 mod\.flipflop21\.d
*192 mod\.flipflop22\.d
*193 mod\.flipflop23\.d
*194 mod\.flipflop25\.d
*195 mod\.flipflop25\.q
*196 mod\.flipflop26\.d
*197 mod\.flipflop26\.q
*198 mod\.flipflop27\.d
*199 mod\.flipflop27\.q
*200 mod\.flipflop28\.d
*201 mod\.flipflop28\.q
*202 mod\.flipflop29\.d
*203 mod\.flipflop29\.q
*204 mod\.flipflop3\.d
*205 mod\.flipflop3\.q
*206 mod\.flipflop30\.q
*207 mod\.flipflop4\.d
*208 mod\.flipflop4\.q
*209 mod\.flipflop5\.d
*210 mod\.flipflop5\.q
*211 mod\.flipflop6\.d
*212 mod\.flipflop6\.q
*213 mod\.flipflop7\.d
*214 mod\.flipflop7\.q
*215 mod\.flipflop8\.d
*216 mod\.flipflop8\.q
*217 mod\.flipflop9\.d
*218 net1
*219 net10
*220 net2
*221 net3
*222 net4
*223 net5
*224 net6
*225 net7
*226 net8
*227 net9
*228 ANTENNA__050__I
*229 ANTENNA__051__I
*230 ANTENNA__052__I
*231 ANTENNA__053__I
*232 ANTENNA__054__I
*233 ANTENNA__056__I
*234 ANTENNA__057__I
*235 ANTENNA__058__I
*236 ANTENNA__059__I
*237 ANTENNA__060__I
*238 ANTENNA__061__I
*239 ANTENNA__062__I
*240 ANTENNA__064__I
*241 ANTENNA__065__I
*242 ANTENNA__066__I
*243 ANTENNA__067__I
*244 ANTENNA__068__I
*245 ANTENNA__069__I
*246 ANTENNA__070__I
*247 ANTENNA__071__I
*248 ANTENNA__072__I
*249 ANTENNA__073__I
*250 ANTENNA__074__I
*251 ANTENNA__075__I
*252 ANTENNA__076__A1
*253 ANTENNA__076__A2
*254 ANTENNA__077__I
*255 ANTENNA__078__A1
*256 ANTENNA__078__A2
*257 ANTENNA__079__A1
*258 ANTENNA__079__A2
*259 ANTENNA__079__A3
*260 ANTENNA__080__A1
*261 ANTENNA__080__B
*262 ANTENNA__081__I
*263 ANTENNA__082__A1
*264 ANTENNA__082__A2
*265 ANTENNA__082__A3
*266 ANTENNA__083__I
*267 ANTENNA__084__I
*268 ANTENNA__085__A1
*269 ANTENNA__085__A2
*270 ANTENNA__085__A3
*271 ANTENNA__085__A4
*272 ANTENNA__086__A1
*273 ANTENNA__087__A1
*274 ANTENNA__087__A2
*275 ANTENNA__087__B
*276 ANTENNA__088__A1
*277 ANTENNA__088__A2
*278 ANTENNA__089__A1
*279 ANTENNA__089__A2
*280 ANTENNA__089__B
*281 ANTENNA__090__I
*282 ANTENNA__091__A1
*283 ANTENNA__091__A2
*284 ANTENNA__091__C
*285 ANTENNA__092__A1
*286 ANTENNA__092__A2
*287 ANTENNA__093__A1
*288 ANTENNA__093__A2
*289 ANTENNA__093__A3
*290 ANTENNA__093__A4
*291 ANTENNA__094__A1
*292 ANTENNA__095__A1
*293 ANTENNA__095__A2
*294 ANTENNA__095__A3
*295 ANTENNA__097__A1
*296 ANTENNA__097__B
*297 ANTENNA__098__A1
*298 ANTENNA__098__A2
*299 ANTENNA__099__I
*300 ANTENNA__100__I
*301 ANTENNA__101__A1
*302 ANTENNA__101__A2
*303 ANTENNA__101__A3
*304 ANTENNA__102__A1
*305 ANTENNA__102__A2
*306 ANTENNA__103__A1
*307 ANTENNA__103__A2
*308 ANTENNA__103__B
*309 ANTENNA__104__A1
*310 ANTENNA__104__A2
*311 ANTENNA__105__A1
*312 ANTENNA__105__A2
*313 ANTENNA__106__A1
*314 ANTENNA__106__A2
*315 ANTENNA__106__B2
*316 ANTENNA__107__A1
*317 ANTENNA__107__A2
*318 ANTENNA__107__B
*319 ANTENNA__108__A1
*320 ANTENNA__108__A2
*321 ANTENNA__109__A2
*322 ANTENNA__109__C
*323 ANTENNA__110__A1
*324 ANTENNA__111__A1
*325 ANTENNA__111__A2
*326 ANTENNA__112__A1
*327 ANTENNA__113__A1
*328 ANTENNA__113__A2
*329 ANTENNA__113__B
*330 ANTENNA__114__A1
*331 ANTENNA__114__A2
*332 ANTENNA__114__B1
*333 ANTENNA__114__B2
*334 ANTENNA__115__A1
*335 ANTENNA__115__A2
*336 ANTENNA__116__A1
*337 ANTENNA__116__A2
*338 ANTENNA__116__B
*339 ANTENNA__117__A1
*340 ANTENNA__117__A2
*341 ANTENNA__117__B2
*342 ANTENNA__118__A1
*343 ANTENNA__118__A2
*344 ANTENNA__118__A3
*345 ANTENNA__119__A1
*346 ANTENNA__119__A2
*347 ANTENNA__119__A3
*348 ANTENNA__120__A1
*349 ANTENNA__120__A2
*350 ANTENNA__121__A1
*351 ANTENNA__121__A2
*352 ANTENNA__121__B
*353 ANTENNA__122__A1
*354 ANTENNA__122__A2
*355 ANTENNA__122__B
*356 ANTENNA__123__I
*357 ANTENNA__124__A1
*358 ANTENNA__124__A2
*359 ANTENNA__125__A1
*360 ANTENNA__125__A2
*361 ANTENNA__127__I
*362 ANTENNA__128__A1
*363 ANTENNA__128__A2
*364 ANTENNA__128__B
*365 ANTENNA__129__CLKN
*366 ANTENNA__130__CLKN
*367 ANTENNA__131__CLKN
*368 ANTENNA__132__CLK
*369 ANTENNA__132__D
*370 ANTENNA__133__CLK
*371 ANTENNA__133__D
*372 ANTENNA__135__CLK
*373 ANTENNA__135__D
*374 ANTENNA__136__CLK
*375 ANTENNA__136__D
*376 ANTENNA__137__CLK
*377 ANTENNA__137__D
*378 ANTENNA__138__CLK
*379 ANTENNA__138__D
*380 ANTENNA__139__CLK
*381 ANTENNA__139__D
*382 ANTENNA__141__CLK
*383 ANTENNA__142__CLK
*384 ANTENNA__142__D
*385 ANTENNA__143__CLK
*386 ANTENNA__143__D
*387 ANTENNA__144__CLK
*388 ANTENNA__144__D
*389 ANTENNA__145__CLK
*390 ANTENNA__146__CLK
*391 ANTENNA__147__CLK
*392 ANTENNA__147__D
*393 ANTENNA__148__CLK
*394 ANTENNA__149__CLK
*395 ANTENNA__150__CLK
*396 ANTENNA__150__D
*397 ANTENNA__151__CLKN
*398 ANTENNA__152__CLK
*399 ANTENNA__152__D
*400 ANTENNA__153__CLK
*401 ANTENNA__153__D
*402 ANTENNA__154__CLK
*403 ANTENNA__154__D
*404 ANTENNA__155__CLK
*405 ANTENNA__156__CLKN
*406 ANTENNA__157__CLKN
*407 ANTENNA__158__CLKN
*408 ANTENNA_input1_I
*409 ANTENNA_input2_I
*410 ANTENNA_output10_I
*411 ANTENNA_output5_I
*412 ANTENNA_output6_I
*413 ANTENNA_output7_I
*414 ANTENNA_output8_I
*415 ANTENNA_output9_I
*416 FILLER_0_101
*417 FILLER_0_107
*418 FILLER_0_119
*419 FILLER_0_131
*420 FILLER_0_139
*421 FILLER_0_142
*422 FILLER_0_144
*423 FILLER_0_149
*424 FILLER_0_165
*425 FILLER_0_17
*426 FILLER_0_173
*427 FILLER_0_177
*428 FILLER_0_182
*429 FILLER_0_190
*430 FILLER_0_192
*431 FILLER_0_197
*432 FILLER_0_2
*433 FILLER_0_205
*434 FILLER_0_209
*435 FILLER_0_212
*436 FILLER_0_220
*437 FILLER_0_222
*438 FILLER_0_227
*439 FILLER_0_23
*440 FILLER_0_243
*441 FILLER_0_247
*442 FILLER_0_252
*443 FILLER_0_268
*444 FILLER_0_27
*445 FILLER_0_270
*446 FILLER_0_275
*447 FILLER_0_279
*448 FILLER_0_282
*449 FILLER_0_298
*450 FILLER_0_300
*451 FILLER_0_305
*452 FILLER_0_313
*453 FILLER_0_317
*454 FILLER_0_325
*455 FILLER_0_329
*456 FILLER_0_335
*457 FILLER_0_343
*458 FILLER_0_347
*459 FILLER_0_349
*460 FILLER_0_352
*461 FILLER_0_357
*462 FILLER_0_365
*463 FILLER_0_37
*464 FILLER_0_371
*465 FILLER_0_383
*466 FILLER_0_387
*467 FILLER_0_395
*468 FILLER_0_401
*469 FILLER_0_413
*470 FILLER_0_419
*471 FILLER_0_42
*472 FILLER_0_58
*473 FILLER_0_66
*474 FILLER_0_72
*475 FILLER_0_77
*476 FILLER_0_93
*477 FILLER_10_101
*478 FILLER_10_105
*479 FILLER_10_108
*480 FILLER_10_172
*481 FILLER_10_176
*482 FILLER_10_179
*483 FILLER_10_2
*484 FILLER_10_243
*485 FILLER_10_247
*486 FILLER_10_250
*487 FILLER_10_314
*488 FILLER_10_318
*489 FILLER_10_321
*490 FILLER_10_34
*491 FILLER_10_37
*492 FILLER_10_385
*493 FILLER_10_389
*494 FILLER_10_392
*495 FILLER_10_408
*496 FILLER_10_416
*497 FILLER_11_137
*498 FILLER_11_141
*499 FILLER_11_144
*500 FILLER_11_2
*501 FILLER_11_208
*502 FILLER_11_212
*503 FILLER_11_215
*504 FILLER_11_279
*505 FILLER_11_283
*506 FILLER_11_286
*507 FILLER_11_350
*508 FILLER_11_354
*509 FILLER_11_357
*510 FILLER_11_389
*511 FILLER_11_405
*512 FILLER_11_413
*513 FILLER_11_419
*514 FILLER_11_66
*515 FILLER_11_70
*516 FILLER_11_73
*517 FILLER_12_101
*518 FILLER_12_105
*519 FILLER_12_108
*520 FILLER_12_172
*521 FILLER_12_176
*522 FILLER_12_179
*523 FILLER_12_2
*524 FILLER_12_243
*525 FILLER_12_247
*526 FILLER_12_250
*527 FILLER_12_314
*528 FILLER_12_318
*529 FILLER_12_321
*530 FILLER_12_34
*531 FILLER_12_37
*532 FILLER_12_385
*533 FILLER_12_389
*534 FILLER_12_392
*535 FILLER_12_408
*536 FILLER_12_412
*537 FILLER_12_414
*538 FILLER_12_419
*539 FILLER_13_137
*540 FILLER_13_141
*541 FILLER_13_144
*542 FILLER_13_2
*543 FILLER_13_208
*544 FILLER_13_212
*545 FILLER_13_215
*546 FILLER_13_279
*547 FILLER_13_283
*548 FILLER_13_286
*549 FILLER_13_350
*550 FILLER_13_354
*551 FILLER_13_357
*552 FILLER_13_389
*553 FILLER_13_405
*554 FILLER_13_413
*555 FILLER_13_417
*556 FILLER_13_419
*557 FILLER_13_66
*558 FILLER_13_70
*559 FILLER_13_73
*560 FILLER_14_101
*561 FILLER_14_105
*562 FILLER_14_108
*563 FILLER_14_172
*564 FILLER_14_176
*565 FILLER_14_179
*566 FILLER_14_2
*567 FILLER_14_23
*568 FILLER_14_243
*569 FILLER_14_247
*570 FILLER_14_250
*571 FILLER_14_31
*572 FILLER_14_314
*573 FILLER_14_318
*574 FILLER_14_321
*575 FILLER_14_37
*576 FILLER_14_385
*577 FILLER_14_389
*578 FILLER_14_392
*579 FILLER_14_408
*580 FILLER_14_416
*581 FILLER_14_7
*582 FILLER_15_137
*583 FILLER_15_141
*584 FILLER_15_144
*585 FILLER_15_2
*586 FILLER_15_208
*587 FILLER_15_212
*588 FILLER_15_215
*589 FILLER_15_279
*590 FILLER_15_283
*591 FILLER_15_286
*592 FILLER_15_350
*593 FILLER_15_354
*594 FILLER_15_357
*595 FILLER_15_389
*596 FILLER_15_405
*597 FILLER_15_413
*598 FILLER_15_417
*599 FILLER_15_419
*600 FILLER_15_66
*601 FILLER_15_70
*602 FILLER_15_73
*603 FILLER_16_101
*604 FILLER_16_105
*605 FILLER_16_108
*606 FILLER_16_172
*607 FILLER_16_176
*608 FILLER_16_179
*609 FILLER_16_2
*610 FILLER_16_23
*611 FILLER_16_243
*612 FILLER_16_247
*613 FILLER_16_250
*614 FILLER_16_31
*615 FILLER_16_314
*616 FILLER_16_318
*617 FILLER_16_321
*618 FILLER_16_37
*619 FILLER_16_385
*620 FILLER_16_389
*621 FILLER_16_392
*622 FILLER_16_408
*623 FILLER_16_416
*624 FILLER_16_7
*625 FILLER_17_137
*626 FILLER_17_141
*627 FILLER_17_144
*628 FILLER_17_2
*629 FILLER_17_208
*630 FILLER_17_212
*631 FILLER_17_215
*632 FILLER_17_279
*633 FILLER_17_283
*634 FILLER_17_286
*635 FILLER_17_350
*636 FILLER_17_354
*637 FILLER_17_357
*638 FILLER_17_389
*639 FILLER_17_405
*640 FILLER_17_413
*641 FILLER_17_417
*642 FILLER_17_419
*643 FILLER_17_66
*644 FILLER_17_70
*645 FILLER_17_73
*646 FILLER_18_101
*647 FILLER_18_105
*648 FILLER_18_108
*649 FILLER_18_172
*650 FILLER_18_176
*651 FILLER_18_179
*652 FILLER_18_2
*653 FILLER_18_23
*654 FILLER_18_243
*655 FILLER_18_247
*656 FILLER_18_250
*657 FILLER_18_31
*658 FILLER_18_314
*659 FILLER_18_318
*660 FILLER_18_321
*661 FILLER_18_37
*662 FILLER_18_385
*663 FILLER_18_389
*664 FILLER_18_392
*665 FILLER_18_408
*666 FILLER_18_412
*667 FILLER_18_414
*668 FILLER_18_419
*669 FILLER_18_7
*670 FILLER_19_137
*671 FILLER_19_141
*672 FILLER_19_144
*673 FILLER_19_2
*674 FILLER_19_208
*675 FILLER_19_212
*676 FILLER_19_215
*677 FILLER_19_279
*678 FILLER_19_283
*679 FILLER_19_286
*680 FILLER_19_350
*681 FILLER_19_354
*682 FILLER_19_357
*683 FILLER_19_389
*684 FILLER_19_405
*685 FILLER_19_413
*686 FILLER_19_419
*687 FILLER_19_66
*688 FILLER_19_70
*689 FILLER_19_73
*690 FILLER_1_13
*691 FILLER_1_137
*692 FILLER_1_141
*693 FILLER_1_144
*694 FILLER_1_2
*695 FILLER_1_208
*696 FILLER_1_212
*697 FILLER_1_215
*698 FILLER_1_279
*699 FILLER_1_283
*700 FILLER_1_286
*701 FILLER_1_350
*702 FILLER_1_354
*703 FILLER_1_357
*704 FILLER_1_389
*705 FILLER_1_405
*706 FILLER_1_413
*707 FILLER_1_417
*708 FILLER_1_419
*709 FILLER_1_45
*710 FILLER_1_61
*711 FILLER_1_69
*712 FILLER_1_7
*713 FILLER_1_73
*714 FILLER_20_101
*715 FILLER_20_105
*716 FILLER_20_108
*717 FILLER_20_172
*718 FILLER_20_176
*719 FILLER_20_179
*720 FILLER_20_2
*721 FILLER_20_23
*722 FILLER_20_243
*723 FILLER_20_247
*724 FILLER_20_250
*725 FILLER_20_31
*726 FILLER_20_314
*727 FILLER_20_318
*728 FILLER_20_321
*729 FILLER_20_37
*730 FILLER_20_385
*731 FILLER_20_389
*732 FILLER_20_392
*733 FILLER_20_408
*734 FILLER_20_416
*735 FILLER_20_7
*736 FILLER_21_137
*737 FILLER_21_141
*738 FILLER_21_144
*739 FILLER_21_2
*740 FILLER_21_208
*741 FILLER_21_212
*742 FILLER_21_215
*743 FILLER_21_279
*744 FILLER_21_283
*745 FILLER_21_286
*746 FILLER_21_350
*747 FILLER_21_354
*748 FILLER_21_357
*749 FILLER_21_389
*750 FILLER_21_405
*751 FILLER_21_413
*752 FILLER_21_417
*753 FILLER_21_419
*754 FILLER_21_66
*755 FILLER_21_70
*756 FILLER_21_73
*757 FILLER_22_101
*758 FILLER_22_105
*759 FILLER_22_108
*760 FILLER_22_172
*761 FILLER_22_176
*762 FILLER_22_179
*763 FILLER_22_2
*764 FILLER_22_243
*765 FILLER_22_247
*766 FILLER_22_250
*767 FILLER_22_314
*768 FILLER_22_318
*769 FILLER_22_321
*770 FILLER_22_34
*771 FILLER_22_37
*772 FILLER_22_385
*773 FILLER_22_389
*774 FILLER_22_392
*775 FILLER_22_408
*776 FILLER_22_416
*777 FILLER_23_137
*778 FILLER_23_141
*779 FILLER_23_144
*780 FILLER_23_2
*781 FILLER_23_208
*782 FILLER_23_212
*783 FILLER_23_215
*784 FILLER_23_279
*785 FILLER_23_283
*786 FILLER_23_286
*787 FILLER_23_350
*788 FILLER_23_354
*789 FILLER_23_357
*790 FILLER_23_389
*791 FILLER_23_405
*792 FILLER_23_413
*793 FILLER_23_417
*794 FILLER_23_419
*795 FILLER_23_7
*796 FILLER_23_73
*797 FILLER_24_101
*798 FILLER_24_105
*799 FILLER_24_108
*800 FILLER_24_172
*801 FILLER_24_176
*802 FILLER_24_179
*803 FILLER_24_2
*804 FILLER_24_243
*805 FILLER_24_247
*806 FILLER_24_250
*807 FILLER_24_314
*808 FILLER_24_318
*809 FILLER_24_321
*810 FILLER_24_34
*811 FILLER_24_37
*812 FILLER_24_385
*813 FILLER_24_389
*814 FILLER_24_392
*815 FILLER_24_408
*816 FILLER_24_412
*817 FILLER_24_414
*818 FILLER_24_419
*819 FILLER_25_137
*820 FILLER_25_141
*821 FILLER_25_144
*822 FILLER_25_17
*823 FILLER_25_2
*824 FILLER_25_208
*825 FILLER_25_21
*826 FILLER_25_212
*827 FILLER_25_215
*828 FILLER_25_279
*829 FILLER_25_283
*830 FILLER_25_286
*831 FILLER_25_350
*832 FILLER_25_354
*833 FILLER_25_357
*834 FILLER_25_389
*835 FILLER_25_405
*836 FILLER_25_413
*837 FILLER_25_417
*838 FILLER_25_419
*839 FILLER_25_53
*840 FILLER_25_69
*841 FILLER_25_73
*842 FILLER_26_101
*843 FILLER_26_105
*844 FILLER_26_108
*845 FILLER_26_172
*846 FILLER_26_176
*847 FILLER_26_179
*848 FILLER_26_2
*849 FILLER_26_243
*850 FILLER_26_247
*851 FILLER_26_250
*852 FILLER_26_314
*853 FILLER_26_318
*854 FILLER_26_321
*855 FILLER_26_34
*856 FILLER_26_37
*857 FILLER_26_385
*858 FILLER_26_389
*859 FILLER_26_392
*860 FILLER_26_408
*861 FILLER_26_412
*862 FILLER_26_414
*863 FILLER_26_419
*864 FILLER_27_137
*865 FILLER_27_141
*866 FILLER_27_144
*867 FILLER_27_2
*868 FILLER_27_208
*869 FILLER_27_212
*870 FILLER_27_215
*871 FILLER_27_279
*872 FILLER_27_283
*873 FILLER_27_286
*874 FILLER_27_350
*875 FILLER_27_354
*876 FILLER_27_357
*877 FILLER_27_389
*878 FILLER_27_405
*879 FILLER_27_413
*880 FILLER_27_417
*881 FILLER_27_419
*882 FILLER_27_7
*883 FILLER_27_73
*884 FILLER_28_101
*885 FILLER_28_105
*886 FILLER_28_108
*887 FILLER_28_172
*888 FILLER_28_176
*889 FILLER_28_179
*890 FILLER_28_2
*891 FILLER_28_243
*892 FILLER_28_247
*893 FILLER_28_250
*894 FILLER_28_314
*895 FILLER_28_318
*896 FILLER_28_321
*897 FILLER_28_34
*898 FILLER_28_37
*899 FILLER_28_385
*900 FILLER_28_389
*901 FILLER_28_392
*902 FILLER_28_408
*903 FILLER_28_416
*904 FILLER_29_137
*905 FILLER_29_141
*906 FILLER_29_144
*907 FILLER_29_2
*908 FILLER_29_208
*909 FILLER_29_212
*910 FILLER_29_215
*911 FILLER_29_279
*912 FILLER_29_283
*913 FILLER_29_286
*914 FILLER_29_350
*915 FILLER_29_354
*916 FILLER_29_357
*917 FILLER_29_389
*918 FILLER_29_405
*919 FILLER_29_413
*920 FILLER_29_417
*921 FILLER_29_419
*922 FILLER_29_66
*923 FILLER_29_70
*924 FILLER_29_73
*925 FILLER_2_101
*926 FILLER_2_105
*927 FILLER_2_108
*928 FILLER_2_172
*929 FILLER_2_176
*930 FILLER_2_179
*931 FILLER_2_2
*932 FILLER_2_243
*933 FILLER_2_247
*934 FILLER_2_250
*935 FILLER_2_314
*936 FILLER_2_318
*937 FILLER_2_321
*938 FILLER_2_34
*939 FILLER_2_37
*940 FILLER_2_385
*941 FILLER_2_389
*942 FILLER_2_392
*943 FILLER_2_408
*944 FILLER_2_416
*945 FILLER_30_101
*946 FILLER_30_105
*947 FILLER_30_108
*948 FILLER_30_172
*949 FILLER_30_176
*950 FILLER_30_179
*951 FILLER_30_2
*952 FILLER_30_23
*953 FILLER_30_243
*954 FILLER_30_247
*955 FILLER_30_250
*956 FILLER_30_31
*957 FILLER_30_314
*958 FILLER_30_318
*959 FILLER_30_321
*960 FILLER_30_37
*961 FILLER_30_385
*962 FILLER_30_389
*963 FILLER_30_392
*964 FILLER_30_408
*965 FILLER_30_412
*966 FILLER_30_414
*967 FILLER_30_419
*968 FILLER_30_7
*969 FILLER_31_137
*970 FILLER_31_141
*971 FILLER_31_144
*972 FILLER_31_2
*973 FILLER_31_208
*974 FILLER_31_212
*975 FILLER_31_215
*976 FILLER_31_279
*977 FILLER_31_283
*978 FILLER_31_286
*979 FILLER_31_350
*980 FILLER_31_354
*981 FILLER_31_357
*982 FILLER_31_389
*983 FILLER_31_405
*984 FILLER_31_413
*985 FILLER_31_417
*986 FILLER_31_419
*987 FILLER_31_66
*988 FILLER_31_70
*989 FILLER_31_73
*990 FILLER_32_101
*991 FILLER_32_105
*992 FILLER_32_108
*993 FILLER_32_172
*994 FILLER_32_176
*995 FILLER_32_179
*996 FILLER_32_2
*997 FILLER_32_23
*998 FILLER_32_243
*999 FILLER_32_247
*1000 FILLER_32_250
*1001 FILLER_32_31
*1002 FILLER_32_314
*1003 FILLER_32_318
*1004 FILLER_32_321
*1005 FILLER_32_37
*1006 FILLER_32_385
*1007 FILLER_32_389
*1008 FILLER_32_392
*1009 FILLER_32_408
*1010 FILLER_32_416
*1011 FILLER_32_7
*1012 FILLER_33_137
*1013 FILLER_33_141
*1014 FILLER_33_144
*1015 FILLER_33_2
*1016 FILLER_33_208
*1017 FILLER_33_212
*1018 FILLER_33_215
*1019 FILLER_33_279
*1020 FILLER_33_283
*1021 FILLER_33_286
*1022 FILLER_33_350
*1023 FILLER_33_354
*1024 FILLER_33_357
*1025 FILLER_33_389
*1026 FILLER_33_405
*1027 FILLER_33_413
*1028 FILLER_33_419
*1029 FILLER_33_66
*1030 FILLER_33_70
*1031 FILLER_33_73
*1032 FILLER_34_101
*1033 FILLER_34_105
*1034 FILLER_34_108
*1035 FILLER_34_172
*1036 FILLER_34_176
*1037 FILLER_34_179
*1038 FILLER_34_2
*1039 FILLER_34_23
*1040 FILLER_34_243
*1041 FILLER_34_247
*1042 FILLER_34_250
*1043 FILLER_34_31
*1044 FILLER_34_314
*1045 FILLER_34_318
*1046 FILLER_34_321
*1047 FILLER_34_37
*1048 FILLER_34_385
*1049 FILLER_34_389
*1050 FILLER_34_392
*1051 FILLER_34_408
*1052 FILLER_34_416
*1053 FILLER_34_7
*1054 FILLER_35_137
*1055 FILLER_35_141
*1056 FILLER_35_144
*1057 FILLER_35_2
*1058 FILLER_35_208
*1059 FILLER_35_212
*1060 FILLER_35_215
*1061 FILLER_35_279
*1062 FILLER_35_283
*1063 FILLER_35_286
*1064 FILLER_35_350
*1065 FILLER_35_354
*1066 FILLER_35_357
*1067 FILLER_35_389
*1068 FILLER_35_405
*1069 FILLER_35_413
*1070 FILLER_35_417
*1071 FILLER_35_419
*1072 FILLER_35_66
*1073 FILLER_35_70
*1074 FILLER_35_73
*1075 FILLER_36_101
*1076 FILLER_36_105
*1077 FILLER_36_108
*1078 FILLER_36_172
*1079 FILLER_36_176
*1080 FILLER_36_179
*1081 FILLER_36_2
*1082 FILLER_36_243
*1083 FILLER_36_247
*1084 FILLER_36_250
*1085 FILLER_36_314
*1086 FILLER_36_318
*1087 FILLER_36_321
*1088 FILLER_36_34
*1089 FILLER_36_37
*1090 FILLER_36_385
*1091 FILLER_36_389
*1092 FILLER_36_392
*1093 FILLER_36_408
*1094 FILLER_36_412
*1095 FILLER_36_414
*1096 FILLER_36_419
*1097 FILLER_37_137
*1098 FILLER_37_141
*1099 FILLER_37_144
*1100 FILLER_37_2
*1101 FILLER_37_208
*1102 FILLER_37_212
*1103 FILLER_37_215
*1104 FILLER_37_279
*1105 FILLER_37_283
*1106 FILLER_37_286
*1107 FILLER_37_350
*1108 FILLER_37_354
*1109 FILLER_37_357
*1110 FILLER_37_389
*1111 FILLER_37_405
*1112 FILLER_37_413
*1113 FILLER_37_419
*1114 FILLER_37_66
*1115 FILLER_37_70
*1116 FILLER_37_73
*1117 FILLER_38_101
*1118 FILLER_38_105
*1119 FILLER_38_108
*1120 FILLER_38_172
*1121 FILLER_38_176
*1122 FILLER_38_179
*1123 FILLER_38_2
*1124 FILLER_38_23
*1125 FILLER_38_243
*1126 FILLER_38_247
*1127 FILLER_38_250
*1128 FILLER_38_31
*1129 FILLER_38_314
*1130 FILLER_38_318
*1131 FILLER_38_321
*1132 FILLER_38_37
*1133 FILLER_38_385
*1134 FILLER_38_389
*1135 FILLER_38_392
*1136 FILLER_38_408
*1137 FILLER_38_416
*1138 FILLER_38_7
*1139 FILLER_39_137
*1140 FILLER_39_141
*1141 FILLER_39_144
*1142 FILLER_39_2
*1143 FILLER_39_208
*1144 FILLER_39_212
*1145 FILLER_39_215
*1146 FILLER_39_279
*1147 FILLER_39_283
*1148 FILLER_39_286
*1149 FILLER_39_350
*1150 FILLER_39_354
*1151 FILLER_39_357
*1152 FILLER_39_389
*1153 FILLER_39_405
*1154 FILLER_39_413
*1155 FILLER_39_417
*1156 FILLER_39_419
*1157 FILLER_39_66
*1158 FILLER_39_70
*1159 FILLER_39_73
*1160 FILLER_3_137
*1161 FILLER_3_141
*1162 FILLER_3_144
*1163 FILLER_3_2
*1164 FILLER_3_208
*1165 FILLER_3_212
*1166 FILLER_3_215
*1167 FILLER_3_279
*1168 FILLER_3_283
*1169 FILLER_3_286
*1170 FILLER_3_350
*1171 FILLER_3_354
*1172 FILLER_3_357
*1173 FILLER_3_389
*1174 FILLER_3_405
*1175 FILLER_3_413
*1176 FILLER_3_417
*1177 FILLER_3_419
*1178 FILLER_3_66
*1179 FILLER_3_70
*1180 FILLER_3_73
*1181 FILLER_40_101
*1182 FILLER_40_105
*1183 FILLER_40_108
*1184 FILLER_40_140
*1185 FILLER_40_142
*1186 FILLER_40_145
*1187 FILLER_40_149
*1188 FILLER_40_155
*1189 FILLER_40_159
*1190 FILLER_40_175
*1191 FILLER_40_179
*1192 FILLER_40_2
*1193 FILLER_40_243
*1194 FILLER_40_247
*1195 FILLER_40_250
*1196 FILLER_40_314
*1197 FILLER_40_318
*1198 FILLER_40_321
*1199 FILLER_40_34
*1200 FILLER_40_37
*1201 FILLER_40_385
*1202 FILLER_40_389
*1203 FILLER_40_392
*1204 FILLER_40_408
*1205 FILLER_40_412
*1206 FILLER_40_414
*1207 FILLER_40_419
*1208 FILLER_41_105
*1209 FILLER_41_121
*1210 FILLER_41_129
*1211 FILLER_41_133
*1212 FILLER_41_137
*1213 FILLER_41_141
*1214 FILLER_41_144
*1215 FILLER_41_147
*1216 FILLER_41_151
*1217 FILLER_41_155
*1218 FILLER_41_159
*1219 FILLER_41_163
*1220 FILLER_41_167
*1221 FILLER_41_171
*1222 FILLER_41_175
*1223 FILLER_41_2
*1224 FILLER_41_207
*1225 FILLER_41_211
*1226 FILLER_41_215
*1227 FILLER_41_279
*1228 FILLER_41_283
*1229 FILLER_41_286
*1230 FILLER_41_350
*1231 FILLER_41_354
*1232 FILLER_41_357
*1233 FILLER_41_389
*1234 FILLER_41_405
*1235 FILLER_41_413
*1236 FILLER_41_417
*1237 FILLER_41_419
*1238 FILLER_41_7
*1239 FILLER_41_73
*1240 FILLER_42_101
*1241 FILLER_42_105
*1242 FILLER_42_108
*1243 FILLER_42_116
*1244 FILLER_42_120
*1245 FILLER_42_122
*1246 FILLER_42_125
*1247 FILLER_42_129
*1248 FILLER_42_133
*1249 FILLER_42_139
*1250 FILLER_42_147
*1251 FILLER_42_155
*1252 FILLER_42_159
*1253 FILLER_42_163
*1254 FILLER_42_167
*1255 FILLER_42_171
*1256 FILLER_42_173
*1257 FILLER_42_176
*1258 FILLER_42_179
*1259 FILLER_42_182
*1260 FILLER_42_186
*1261 FILLER_42_2
*1262 FILLER_42_218
*1263 FILLER_42_234
*1264 FILLER_42_242
*1265 FILLER_42_246
*1266 FILLER_42_250
*1267 FILLER_42_314
*1268 FILLER_42_318
*1269 FILLER_42_321
*1270 FILLER_42_34
*1271 FILLER_42_37
*1272 FILLER_42_385
*1273 FILLER_42_389
*1274 FILLER_42_392
*1275 FILLER_42_408
*1276 FILLER_42_412
*1277 FILLER_42_414
*1278 FILLER_42_419
*1279 FILLER_43_107
*1280 FILLER_43_111
*1281 FILLER_43_115
*1282 FILLER_43_119
*1283 FILLER_43_123
*1284 FILLER_43_127
*1285 FILLER_43_133
*1286 FILLER_43_141
*1287 FILLER_43_144
*1288 FILLER_43_153
*1289 FILLER_43_161
*1290 FILLER_43_167
*1291 FILLER_43_171
*1292 FILLER_43_175
*1293 FILLER_43_179
*1294 FILLER_43_183
*1295 FILLER_43_187
*1296 FILLER_43_191
*1297 FILLER_43_195
*1298 FILLER_43_2
*1299 FILLER_43_211
*1300 FILLER_43_215
*1301 FILLER_43_279
*1302 FILLER_43_283
*1303 FILLER_43_286
*1304 FILLER_43_350
*1305 FILLER_43_354
*1306 FILLER_43_357
*1307 FILLER_43_389
*1308 FILLER_43_405
*1309 FILLER_43_413
*1310 FILLER_43_417
*1311 FILLER_43_419
*1312 FILLER_43_7
*1313 FILLER_43_73
*1314 FILLER_44_101
*1315 FILLER_44_105
*1316 FILLER_44_108
*1317 FILLER_44_110
*1318 FILLER_44_113
*1319 FILLER_44_117
*1320 FILLER_44_123
*1321 FILLER_44_154
*1322 FILLER_44_164
*1323 FILLER_44_172
*1324 FILLER_44_176
*1325 FILLER_44_179
*1326 FILLER_44_182
*1327 FILLER_44_186
*1328 FILLER_44_190
*1329 FILLER_44_194
*1330 FILLER_44_198
*1331 FILLER_44_2
*1332 FILLER_44_202
*1333 FILLER_44_206
*1334 FILLER_44_238
*1335 FILLER_44_246
*1336 FILLER_44_250
*1337 FILLER_44_314
*1338 FILLER_44_318
*1339 FILLER_44_321
*1340 FILLER_44_34
*1341 FILLER_44_37
*1342 FILLER_44_385
*1343 FILLER_44_389
*1344 FILLER_44_392
*1345 FILLER_44_408
*1346 FILLER_44_412
*1347 FILLER_44_414
*1348 FILLER_44_419
*1349 FILLER_44_69
*1350 FILLER_44_77
*1351 FILLER_44_81
*1352 FILLER_44_84
*1353 FILLER_44_88
*1354 FILLER_44_92
*1355 FILLER_44_94
*1356 FILLER_44_97
*1357 FILLER_45_103
*1358 FILLER_45_134
*1359 FILLER_45_141
*1360 FILLER_45_144
*1361 FILLER_45_153
*1362 FILLER_45_163
*1363 FILLER_45_172
*1364 FILLER_45_180
*1365 FILLER_45_186
*1366 FILLER_45_190
*1367 FILLER_45_194
*1368 FILLER_45_198
*1369 FILLER_45_2
*1370 FILLER_45_202
*1371 FILLER_45_206
*1372 FILLER_45_210
*1373 FILLER_45_212
*1374 FILLER_45_215
*1375 FILLER_45_279
*1376 FILLER_45_283
*1377 FILLER_45_286
*1378 FILLER_45_350
*1379 FILLER_45_354
*1380 FILLER_45_357
*1381 FILLER_45_389
*1382 FILLER_45_405
*1383 FILLER_45_413
*1384 FILLER_45_417
*1385 FILLER_45_419
*1386 FILLER_45_7
*1387 FILLER_45_73
*1388 FILLER_45_79
*1389 FILLER_45_83
*1390 FILLER_45_87
*1391 FILLER_45_91
*1392 FILLER_45_95
*1393 FILLER_45_99
*1394 FILLER_46_105
*1395 FILLER_46_108
*1396 FILLER_46_111
*1397 FILLER_46_121
*1398 FILLER_46_131
*1399 FILLER_46_162
*1400 FILLER_46_172
*1401 FILLER_46_176
*1402 FILLER_46_179
*1403 FILLER_46_186
*1404 FILLER_46_192
*1405 FILLER_46_196
*1406 FILLER_46_2
*1407 FILLER_46_200
*1408 FILLER_46_204
*1409 FILLER_46_208
*1410 FILLER_46_212
*1411 FILLER_46_216
*1412 FILLER_46_220
*1413 FILLER_46_224
*1414 FILLER_46_240
*1415 FILLER_46_250
*1416 FILLER_46_314
*1417 FILLER_46_318
*1418 FILLER_46_321
*1419 FILLER_46_34
*1420 FILLER_46_37
*1421 FILLER_46_385
*1422 FILLER_46_389
*1423 FILLER_46_392
*1424 FILLER_46_408
*1425 FILLER_46_416
*1426 FILLER_46_53
*1427 FILLER_46_63
*1428 FILLER_46_67
*1429 FILLER_46_71
*1430 FILLER_46_75
*1431 FILLER_46_79
*1432 FILLER_46_83
*1433 FILLER_46_87
*1434 FILLER_46_91
*1435 FILLER_46_97
*1436 FILLER_47_123
*1437 FILLER_47_131
*1438 FILLER_47_141
*1439 FILLER_47_144
*1440 FILLER_47_174
*1441 FILLER_47_184
*1442 FILLER_47_193
*1443 FILLER_47_199
*1444 FILLER_47_2
*1445 FILLER_47_205
*1446 FILLER_47_209
*1447 FILLER_47_215
*1448 FILLER_47_218
*1449 FILLER_47_222
*1450 FILLER_47_226
*1451 FILLER_47_230
*1452 FILLER_47_234
*1453 FILLER_47_266
*1454 FILLER_47_282
*1455 FILLER_47_286
*1456 FILLER_47_34
*1457 FILLER_47_350
*1458 FILLER_47_354
*1459 FILLER_47_357
*1460 FILLER_47_389
*1461 FILLER_47_405
*1462 FILLER_47_413
*1463 FILLER_47_419
*1464 FILLER_47_50
*1465 FILLER_47_54
*1466 FILLER_47_58
*1467 FILLER_47_62
*1468 FILLER_47_66
*1469 FILLER_47_70
*1470 FILLER_47_73
*1471 FILLER_47_77
*1472 FILLER_47_81
*1473 FILLER_47_85
*1474 FILLER_47_91
*1475 FILLER_48_105
*1476 FILLER_48_108
*1477 FILLER_48_113
*1478 FILLER_48_123
*1479 FILLER_48_133
*1480 FILLER_48_164
*1481 FILLER_48_174
*1482 FILLER_48_176
*1483 FILLER_48_179
*1484 FILLER_48_188
*1485 FILLER_48_197
*1486 FILLER_48_2
*1487 FILLER_48_205
*1488 FILLER_48_211
*1489 FILLER_48_215
*1490 FILLER_48_217
*1491 FILLER_48_220
*1492 FILLER_48_224
*1493 FILLER_48_228
*1494 FILLER_48_232
*1495 FILLER_48_236
*1496 FILLER_48_240
*1497 FILLER_48_250
*1498 FILLER_48_314
*1499 FILLER_48_318
*1500 FILLER_48_321
*1501 FILLER_48_34
*1502 FILLER_48_37
*1503 FILLER_48_385
*1504 FILLER_48_389
*1505 FILLER_48_392
*1506 FILLER_48_408
*1507 FILLER_48_41
*1508 FILLER_48_416
*1509 FILLER_48_43
*1510 FILLER_48_46
*1511 FILLER_48_50
*1512 FILLER_48_54
*1513 FILLER_48_58
*1514 FILLER_48_62
*1515 FILLER_48_66
*1516 FILLER_48_70
*1517 FILLER_48_74
*1518 FILLER_49_124
*1519 FILLER_49_128
*1520 FILLER_49_141
*1521 FILLER_49_144
*1522 FILLER_49_174
*1523 FILLER_49_2
*1524 FILLER_49_205
*1525 FILLER_49_211
*1526 FILLER_49_215
*1527 FILLER_49_220
*1528 FILLER_49_224
*1529 FILLER_49_228
*1530 FILLER_49_232
*1531 FILLER_49_236
*1532 FILLER_49_240
*1533 FILLER_49_244
*1534 FILLER_49_248
*1535 FILLER_49_252
*1536 FILLER_49_286
*1537 FILLER_49_350
*1538 FILLER_49_354
*1539 FILLER_49_357
*1540 FILLER_49_36
*1541 FILLER_49_389
*1542 FILLER_49_40
*1543 FILLER_49_405
*1544 FILLER_49_413
*1545 FILLER_49_417
*1546 FILLER_49_419
*1547 FILLER_49_44
*1548 FILLER_49_48
*1549 FILLER_49_52
*1550 FILLER_49_56
*1551 FILLER_49_60
*1552 FILLER_49_64
*1553 FILLER_49_70
*1554 FILLER_49_73
*1555 FILLER_49_76
*1556 FILLER_49_82
*1557 FILLER_49_92
*1558 FILLER_4_101
*1559 FILLER_4_105
*1560 FILLER_4_108
*1561 FILLER_4_172
*1562 FILLER_4_176
*1563 FILLER_4_179
*1564 FILLER_4_2
*1565 FILLER_4_243
*1566 FILLER_4_247
*1567 FILLER_4_250
*1568 FILLER_4_314
*1569 FILLER_4_318
*1570 FILLER_4_321
*1571 FILLER_4_34
*1572 FILLER_4_37
*1573 FILLER_4_385
*1574 FILLER_4_389
*1575 FILLER_4_392
*1576 FILLER_4_408
*1577 FILLER_4_412
*1578 FILLER_4_414
*1579 FILLER_4_419
*1580 FILLER_50_105
*1581 FILLER_50_108
*1582 FILLER_50_110
*1583 FILLER_50_121
*1584 FILLER_50_133
*1585 FILLER_50_164